@<TRIPOS>MOLECULE
MOL
  189   185     1     0     0
SMALL
resp


@<TRIPOS>ATOM
      1 C1          0.2380    2.6530    5.1000 c3        1 MOL     -0.351488
      2 C2         -0.4730    2.4160    3.7710 c         1 MOL      0.520967
      3 O1          0.1830    2.5650    2.7530 o         1 MOL     -0.505859
      4 H1          1.1710    2.0890    5.1180 hc        1 MOL      0.096326
      5 H2          0.4540    3.7140    5.2130 hc        1 MOL      0.096326
      6 H3         -0.4020    2.3220    5.9190 hc        1 MOL      0.096326
      7 N1         -1.7300    2.0320    3.6630 n         1 MOL     -0.481662
      8 C3         -2.4990    1.7770    2.4230 c3        1 MOL      0.352031
      9 C4         -2.9650    3.0150    1.7210 c         1 MOL      0.161988
     10 O2         -4.2030    3.2100    1.7580 o         1 MOL     -0.458226
     11 C5         -3.6020    0.6760    2.7520 c3        1 MOL     -0.161591
     12 C6         -4.2700    0.1490    1.4550 c         1 MOL      0.734323
     13 O3         -5.3190   -0.5760    1.5760 o         1 MOL     -0.680859
     14 O4         -3.7820    0.4460    0.3140 o         1 MOL     -0.680859
     15 H4         -2.3010    1.8810    4.4750 hn        1 MOL      0.282463
     16 H5         -1.8490    1.3530    1.6540 h1        1 MOL     -0.074402
     17 H6         -4.3590    1.0460    3.4330 hc        1 MOL      0.036455
     18 H7         -3.0470   -0.1240    3.2380 hc        1 MOL      0.036455
     19 N2         -2.0790    3.6820    1.0450 n         1 MOL     -0.129936
     20 C7         -2.4170    5.0570    0.4710 c3        1 MOL     -0.068035
     21 C8         -3.3420    5.0800   -0.6970 c         1 MOL      0.438520
     22 O5         -3.8680    6.1280   -1.0200 o         1 MOL     -0.576361
     23 C9         -1.1250    5.8600    0.1560 c3        1 MOL     -0.099920
     24 C10        -0.5160    6.2990    1.5350 c3        1 MOL      0.232844
     25 C11         0.8460    6.9260    1.1420 c3        1 MOL     -0.224286
     26 C12         1.2550    7.8000    2.2860 c3        1 MOL     -0.018965
     27 N3          1.4570    6.9730    3.5070 n4        1 MOL     -0.283054
     28 H8         -1.1660    3.2840    0.8970 hn        1 MOL      0.266569
     29 H9         -3.0040    5.5590    1.2450 h1        1 MOL      0.105796
     30 H10        -1.3610    6.7160   -0.4720 hc        1 MOL      0.058210
     31 H11        -0.3990    5.2150   -0.3340 hc        1 MOL      0.058210
     32 H12        -0.3330    5.4010    2.1370 hc        1 MOL     -0.060026
     33 H13        -1.2150    6.9230    2.1030 hc        1 MOL     -0.060026
     34 H14         0.6530    7.6240    0.3220 hc        1 MOL      0.103462
     35 H15         1.5960    6.1910    0.8450 hc        1 MOL      0.103462
     36 H16         0.5290    8.5660    2.5450 hx        1 MOL      0.101070
     37 H17         2.1750    8.3340    2.0600 hx        1 MOL      0.101070
     38 H18         1.8460    7.4780    4.2890 hn        1 MOL      0.304291
     39 H19         0.5570    6.6280    3.8160 hn        1 MOL      0.304291
     40 H20         2.0490    6.1680    3.4020 hn        1 MOL      0.304291
     41 N4         -3.5630    3.9560   -1.3220 n         1 MOL     -0.074373
     42 C13        -4.3870    3.6940   -2.4800 c3        1 MOL      0.033276
     43 C14        -5.6630    2.7070   -2.1600 c         1 MOL      0.443226
     44 O6         -6.4700    2.5480   -3.0770 o         1 MOL     -0.511704
     45 C15        -3.6240    3.3570   -3.7740 c3        1 MOL     -0.267439
     46 C16        -2.5850    2.2370   -3.6880 c         1 MOL      0.702222
     47 O7         -1.5760    2.2630   -4.4050 o         1 MOL     -0.668261
     48 O8         -2.7000    1.4280   -2.6730 o         1 MOL     -0.668261
     49 H21        -3.1200    3.1010   -1.0180 hn        1 MOL      0.090123
     50 H22        -4.9490    4.6040   -2.6650 h1        1 MOL      0.071020
     51 H23        -3.0480    4.2410   -4.0340 hc        1 MOL      0.076662
     52 H24        -4.3400    3.2000   -4.5850 hc        1 MOL      0.076662
     53 N5         -5.8020    2.3020   -0.8560 n         1 MOL     -0.280291
     54 C17        -7.0210    1.6560   -0.2810 c3        1 MOL     -0.063936
     55 C18        -7.4510    0.3550   -0.9350 c         1 MOL      0.391378
     56 O9         -8.5270   -0.1840   -0.6550 o         1 MOL     -0.561582
     57 H25        -5.0960    2.4080   -0.1420 hn        1 MOL      0.123461
     58 H26        -7.8110    2.3950   -0.2680 h1        1 MOL      0.106209
     59 H27        -6.9230    1.5050    0.7970 h1        1 MOL      0.106209
     60 N6         -6.5650   -0.2890   -1.7240 n         1 MOL     -0.194326
     61 C19        -6.7280   -1.6770   -2.2620 c3        1 MOL      0.023937
     62 C20        -6.9350   -2.7360   -1.1420 c         1 MOL      0.397108
     63 O10        -7.5040   -3.7990   -1.4730 o         1 MOL     -0.576155
     64 C21        -5.5360   -1.9550   -3.1900 c3        1 MOL     -0.354412
     65 C22        -4.1750   -1.8870   -2.6600 c         1 MOL      0.894585
     66 O11        -3.8580   -2.1630   -1.4840 o         1 MOL     -0.754934
     67 O12        -3.2040   -1.5830   -3.4310 o         1 MOL     -0.754934
     68 H28        -5.6970    0.1890   -1.9100 hn        1 MOL      0.173176
     69 H29        -7.6650   -1.6450   -2.8170 h1        1 MOL      0.115904
     70 H30        -5.6750   -1.2160   -3.9850 hc        1 MOL      0.096828
     71 H31        -5.6040   -2.9630   -3.5950 hc        1 MOL      0.096828
     72 N7         -6.7200   -2.4320    0.1250 n         1 MOL     -0.048371
     73 C23        -6.8600   -3.2980    1.2510 c3        1 MOL     -0.314448
     74 C24        -5.5050   -3.9330    1.5820 c         1 MOL      0.592106
     75 O13        -5.5670   -4.9240    2.2630 o         1 MOL     -0.590962
     76 H32        -6.3000   -1.5230    0.2730 hn        1 MOL      0.245223
     77 H33        -7.5990   -4.0560    0.9900 h1        1 MOL      0.140057
     78 H34        -7.2190   -2.7170    2.0950 h1        1 MOL      0.140057
     79 N8         -4.4220   -3.5480    0.9220 n         1 MOL     -0.137098
     80 C25        -3.1190   -4.1970    1.0690 c3        1 MOL     -0.236077
     81 C26        -1.9300   -3.2570    1.2080 c         1 MOL      0.786952
     82 O14        -2.0050   -2.1260    0.7790 o         1 MOL     -0.613275
     83 C27        -2.9170   -5.2240   -0.1030 c3        1 MOL      0.498113
     84 C28        -3.8550   -6.3900   -0.0850 c3        1 MOL     -0.349677
     85 O15        -3.0110   -4.6540   -1.3780 oh        1 MOL     -0.647600
     86 H35        -4.5220   -2.6880    0.4100 hn        1 MOL      0.023985
     87 H36        -3.0810   -4.6960    2.0420 h1        1 MOL      0.061942
     88 H37        -1.9640   -5.7080    0.0910 h1        1 MOL     -0.023596
     89 H38        -3.7260   -4.0100   -1.4420 ho        1 MOL      0.436283
     90 H39        -4.8350   -5.9960   -0.3490 hc        1 MOL      0.080570
     91 H40        -3.5470   -7.2210   -0.7150 hc        1 MOL      0.080570
     92 H41        -3.8210   -6.8070    0.9300 hc        1 MOL      0.080570
     93 N9         -0.7630   -3.6820    1.7440 n         1 MOL     -0.619346
     94 C29         0.4270   -2.8530    1.8910 c3        1 MOL      0.002738
     95 C30         1.6370   -3.4180    1.1420 c         1 MOL      0.530416
     96 O16         2.1060   -4.5320    1.4390 o         1 MOL     -0.542464
     97 C31         0.9420   -2.6800    3.3450 c3        1 MOL      0.216633
     98 C32        -0.1830   -2.5590    4.4700 c3        1 MOL      0.005681
     99 C33         1.7760   -1.3210    3.4060 c3        1 MOL     -0.674258
    100 C34         0.3770   -2.5510    5.8560 c3        1 MOL     -0.200170
    101 H42        -0.7560   -4.5860    2.1930 hn        1 MOL      0.309170
    102 H43         0.2890   -1.8420    1.4850 h1        1 MOL      0.028006
    103 H44         1.5880   -3.5420    3.4760 hc        1 MOL     -0.006761
    104 H45        -0.9230   -3.3480    4.3320 hc        1 MOL      0.030831
    105 H46        -0.7880   -1.6540    4.4210 hc        1 MOL      0.030831
    106 H47         2.5100   -1.4340    2.6090 hc        1 MOL      0.174420
    107 H48         1.0680   -0.4970    3.3130 hc        1 MOL      0.174420
    108 H49         2.2700   -1.3160    4.3790 hc        1 MOL      0.174420
    109 H50         0.8700   -3.5060    6.0630 hc        1 MOL      0.044912
    110 H51         1.0030   -1.6780    6.0490 hc        1 MOL      0.044912
    111 H52        -0.4280   -2.5500    6.5800 hc        1 MOL      0.044912
    112 N10         2.1910   -2.6390    0.1710 n         1 MOL     -0.326290
    113 C35         3.4220   -2.9720   -0.5250 c3        1 MOL     -0.049458
    114 C36         4.6860   -2.8150    0.3160 c         1 MOL      0.430491
    115 O17         4.7670   -2.0180    1.2750 o         1 MOL     -0.363304
    116 C37         3.5700   -2.3360   -1.9150 c3        1 MOL      0.212492
    117 C38         2.3230   -2.1670   -2.7410 c3        1 MOL     -0.284223
    118 O18         4.0790   -1.0820   -1.7140 oh        1 MOL     -0.497933
    119 H53         1.6860   -1.8000   -0.1030 hn        1 MOL      0.381309
    120 H54         3.3740   -4.0400   -0.7590 h1        1 MOL      0.049473
    121 H55         4.2850   -2.9090   -2.5030 h1        1 MOL      0.019363
    122 H56         3.8840   -0.5250   -2.4760 ho        1 MOL      0.376108
    123 H57         1.6480   -3.0290   -2.7270 hc        1 MOL      0.077621
    124 H58         1.8880   -1.1910   -2.5380 hc        1 MOL      0.077621
    125 H59         2.6400   -2.1950   -3.7860 hc        1 MOL      0.077621
    126 N11         5.7640   -3.3080   -0.2160 n         1 MOL     -0.358310
    127 C39         7.0950   -2.8820    0.3200 c3        1 MOL     -0.111247
    128 C40         7.4510   -1.3750    0.2620 c         1 MOL      0.439986
    129 O19         8.1410   -0.8540    1.1220 o         1 MOL     -0.499661
    130 C41         8.2020   -3.7300   -0.3770 c3        1 MOL      0.395247
    131 C42         8.0410   -5.2420   -0.1470 c3        1 MOL     -0.402336
    132 O20         8.3110   -3.4760   -1.7730 oh        1 MOL     -0.683244
    133 H60         5.7940   -3.8550   -1.0590 hn        1 MOL      0.290110
    134 H61         7.1640   -3.1640    1.3710 h1        1 MOL      0.128118
    135 H62         9.1700   -3.4920    0.0390 h1        1 MOL      0.011652
    136 H63         8.7640   -4.1900   -2.2270 ho        1 MOL      0.420896
    137 H64         7.0730   -5.5460   -0.5480 hc        1 MOL      0.108358
    138 H65         8.6710   -5.8430   -0.7960 hc        1 MOL      0.108358
    139 H66         8.1840   -5.3820    0.9260 hc        1 MOL      0.108358
    140 N12         6.9240   -0.6940   -0.7890 n         1 MOL     -0.231041
    141 C43         7.0780    0.7810   -1.0130 c3        1 MOL     -0.260573
    142 C44         6.1800    1.6350   -0.1200 c         1 MOL      0.549173
    143 O21         6.5770    2.7490    0.2390 o         1 MOL     -0.577930
    144 C45         6.8860    0.9940   -2.5020 c3        1 MOL      0.074525
    145 C46         7.5540    2.3240   -2.9330 c3        1 MOL     -0.061505
    146 C47         7.3840    2.6770   -4.3820 c3        1 MOL     -0.216092
    147 C48         7.8030    1.6550   -5.3980 c3        1 MOL     -0.122988
    148 N13         9.2760    1.5350   -5.4290 n4        1 MOL     -0.171155
    149 H67         6.4430   -1.3090   -1.4370 hn        1 MOL      0.154892
    150 H68         8.1090    0.9480   -0.7130 h1        1 MOL      0.171663
    151 H69         5.8240    1.0810   -2.7160 hc        1 MOL      0.027991
    152 H70         7.2800    0.2150   -3.1640 hc        1 MOL      0.027991
    153 H71         8.6280    2.2610   -2.7600 hc        1 MOL      0.044231
    154 H72         7.0590    3.1270   -2.3940 hc        1 MOL      0.044231
    155 H73         7.8830    3.5940   -4.7080 hc        1 MOL      0.127428
    156 H74         6.3360    2.9660   -4.4790 hc        1 MOL      0.127428
    157 H75         7.4830    1.9730   -6.3950 hx        1 MOL      0.123525
    158 H76         7.4490    0.6770   -5.0690 hx        1 MOL      0.123525
    159 H77         9.7180    2.4400   -5.4130 hn        1 MOL      0.269396
    160 H78         9.5600    0.9700   -4.6410 hn        1 MOL      0.269396
    161 H79         9.5800    1.1050   -6.2790 hn        1 MOL      0.269396
    162 N14         5.0680    1.1300    0.3260 n         1 MOL     -0.139865
    163 C49         4.1150    1.7560    1.2450 c3        1 MOL     -0.092027
    164 C50         4.6520    1.4770    2.7000 c         1 MOL      0.548574
    165 O22         4.6010    2.4160    3.4200 o         1 MOL     -0.573451
    166 C51         2.7260    1.1180    1.0960 c3        1 MOL      0.269224
    167 C52         1.9950    1.6070   -0.1270 c3        1 MOL     -0.387677
    168 C53         0.6320    0.9870   -0.2480 c         1 MOL      0.795651
    169 O23         0.5390   -0.2490   -0.2660 o         1 MOL     -0.676248
    170 O24        -0.3880    1.7010   -0.4000 o         1 MOL     -0.676248
    171 H80         4.7350    0.2680   -0.0870 hn        1 MOL      0.075779
    172 H81         3.9860    2.8260    1.1150 h1        1 MOL      0.079369
    173 H82         2.1110    1.3790    1.9600 hc        1 MOL     -0.037522
    174 H83         2.7660    0.0300    1.0770 hc        1 MOL     -0.037522
    175 H84         2.5360    1.3700   -1.0440 hc        1 MOL      0.056052
    176 H85         1.7950    2.6740   -0.0690 hc        1 MOL      0.056052
    177 N15         5.1450    0.2800    3.0530 n         1 MOL     -0.196999
    178 C54         5.9640    0.1180    4.2640 c3        1 MOL     -0.250710
    179 H86         6.7900   -0.5620    4.0550 h1        1 MOL      0.100304
    180 H87         6.3610    1.0860    4.5680 h1        1 MOL      0.100304
    181 H88         5.3510   -0.2930    5.0660 h1        1 MOL      0.100304
    182 H89         5.0520   -0.5270    2.4460 hn        1 MOL      0.181592
    183 Ca1        -1.9500   -0.5150   -1.1380 Ca        1 MOL      1.690437
    184 O25        -0.3810    0.1850   -3.3590 oh        1 MOL     -0.845025
    185 H90        -0.2190   -0.3440   -4.1380 ho        1 MOL      0.390243
    186 H91        -0.8500    0.9580   -3.6760 ho        1 MOL      0.390243
    187 O26        -0.7200   -2.8480   -1.9350 oh        1 MOL     -0.845025
    188 H92        -0.2810   -2.5230   -2.7180 ho        1 MOL      0.390243
    189 H93        -0.9740   -3.7370   -2.1490 ho        1 MOL      0.390243
@<TRIPOS>BOND
     1    1    2 1   
     2    1    4 1   
     3    1    5 1   
     4    1    6 1   
     5    2    3 2   
     6    2    7 1   
     7    7    8 1   
     8    7   15 1   
     9    8    9 1   
    10    8   11 1   
    11    8   16 1   
    12    9   10 2   
    13    9   19 1   
    14   11   12 1   
    15   11   17 1   
    16   11   18 1   
    17   12   13 1   
    18   12   14 1   
    19   19   20 1   
    20   19   28 1   
    21   20   21 1   
    22   20   23 1   
    23   20   29 1   
    24   21   22 2   
    25   21   41 1   
    26   23   24 1   
    27   23   30 1   
    28   23   31 1   
    29   24   25 1   
    30   24   32 1   
    31   24   33 1   
    32   25   26 1   
    33   25   34 1   
    34   25   35 1   
    35   26   27 1   
    36   26   36 1   
    37   26   37 1   
    38   27   38 1   
    39   27   39 1   
    40   27   40 1   
    41   41   42 1   
    42   41   49 1   
    43   42   43 1   
    44   42   45 1   
    45   42   50 1   
    46   43   44 2   
    47   43   53 1   
    48   45   46 1   
    49   45   51 1   
    50   45   52 1   
    51   46   47 1   
    52   46   48 1   
    53   53   54 1   
    54   53   57 1   
    55   54   55 1   
    56   54   58 1   
    57   54   59 1   
    58   55   56 2   
    59   55   60 1   
    60   60   61 1   
    61   60   68 1   
    62   61   62 1   
    63   61   64 1   
    64   61   69 1   
    65   62   63 2   
    66   62   72 1   
    67   64   65 1   
    68   64   70 1   
    69   64   71 1   
    70   65   66 1   
    71   65   67 1   
    72   72   73 1   
    73   72   76 1   
    74   73   74 1   
    75   73   77 1   
    76   73   78 1   
    77   74   75 2   
    78   74   79 1   
    79   79   80 1   
    80   79   86 1   
    81   80   81 1   
    82   80   83 1   
    83   80   87 1   
    84   81   82 2   
    85   81   93 1   
    86   83   84 1   
    87   83   85 1   
    88   83   88 1   
    89   84   90 1   
    90   84   91 1   
    91   84   92 1   
    92   85   89 1   
    93   93   94 1   
    94   93  101 1   
    95   94   95 1   
    96   94   97 1   
    97   94  102 1   
    98   95   96 2   
    99   95  112 1   
   100   97   98 1   
   101   97   99 1   
   102   97  103 1   
   103   98  100 1   
   104   98  104 1   
   105   98  105 1   
   106   99  106 1   
   107   99  107 1   
   108   99  108 1   
   109  100  109 1   
   110  100  110 1   
   111  100  111 1   
   112  112  113 1   
   113  112  119 1   
   114  113  114 1   
   115  113  116 1   
   116  113  120 1   
   117  114  115 2   
   118  114  126 1   
   119  116  117 1   
   120  116  118 1   
   121  116  121 1   
   122  117  123 1   
   123  117  124 1   
   124  117  125 1   
   125  118  122 1   
   126  126  127 1   
   127  126  133 1   
   128  127  128 1   
   129  127  130 1   
   130  127  134 1   
   131  128  129 2   
   132  128  140 1   
   133  130  131 1   
   134  130  132 1   
   135  130  135 1   
   136  131  137 1   
   137  131  138 1   
   138  131  139 1   
   139  132  136 1   
   140  140  141 1   
   141  140  149 1   
   142  141  142 1   
   143  141  144 1   
   144  141  150 1   
   145  142  143 2   
   146  142  162 1   
   147  144  145 1   
   148  144  151 1   
   149  144  152 1   
   150  145  146 1   
   151  145  153 1   
   152  145  154 1   
   153  146  147 1   
   154  146  155 1   
   155  146  156 1   
   156  147  148 1   
   157  147  157 1   
   158  147  158 1   
   159  148  159 1   
   160  148  160 1   
   161  148  161 1   
   162  162  163 1   
   163  162  171 1   
   164  163  164 1   
   165  163  166 1   
   166  163  172 1   
   167  164  165 2   
   168  164  177 1   
   169  166  167 1   
   170  166  173 1   
   171  166  174 1   
   172  167  168 1   
   173  167  175 1   
   174  167  176 1   
   175  168  169 1   
   176  168  170 1   
   177  177  178 1   
   178  177  182 1   
   179  178  179 1   
   180  178  180 1   
   181  178  181 1   
   182  184  185 1   
   183  184  186 1   
   184  187  188 1   
   185  187  189 1   
@<TRIPOS>SUBSTRUCTURE
     1 MOL         1 TEMP              0 ****  ****    0 ROOT
