@<TRIPOS>MOLECULE
MOL
  189   185     1     0     0
SMALL
resp


@<TRIPOS>ATOM
      1 C1         -1.2360    1.5610    6.4420 c3        1 MOL     -0.379904
      2 C2         -1.2760    1.5060    4.9350 c         1 MOL      0.809192
      3 O1         -0.3930    1.9120    4.2170 o         1 MOL     -0.653386
      4 H1         -1.9420    2.3120    6.7960 hc        1 MOL      0.091213
      5 H2         -1.5090    0.5870    6.8490 hc        1 MOL      0.091213
      6 H3         -0.2310    1.8250    6.7700 hc        1 MOL      0.091213
      7 N1         -2.3210    0.8290    4.4130 n         1 MOL     -0.662976
      8 C3         -2.6690    0.9870    3.0020 c3        1 MOL      0.037382
      9 C4         -2.7840    2.5360    2.7200 c         1 MOL      0.538798
     10 O2         -3.4700    3.2840    3.3920 o         1 MOL     -0.569142
     11 C5         -4.0450    0.2920    2.7990 c3        1 MOL     -0.078688
     12 C6         -4.5110    0.4990    1.3540 c         1 MOL      0.778508
     13 O3         -3.5970    0.6690    0.5080 o         1 MOL     -0.659926
     14 O4         -5.7310    0.3350    1.1530 o         1 MOL     -0.659926
     15 H4         -3.0830    0.6160    5.0420 hn        1 MOL      0.330971
     16 H5         -1.9060    0.4810    2.4080 h1        1 MOL      0.048325
     17 H6         -4.8360    0.7190    3.4140 hc        1 MOL      0.015031
     18 H7         -3.9980   -0.7600    3.0890 hc        1 MOL      0.015031
     19 N2         -2.0430    2.9610    1.7030 n         1 MOL     -0.202863
     20 C7         -1.7290    4.3940    1.2670 c3        1 MOL     -0.117884
     21 C8         -2.7120    5.0050    0.2620 c         1 MOL      0.562256
     22 O5         -2.9500    6.2250    0.1940 o         1 MOL     -0.556339
     23 C9         -0.3190    4.3400    0.7670 c3        1 MOL      0.088087
     24 C10         0.2940    5.6240    0.1830 c3        1 MOL     -0.074095
     25 C11         0.4330    6.8190    1.1590 c3        1 MOL      0.049652
     26 C12         1.4510    6.5390    2.3040 c3        1 MOL     -0.107957
     27 N3          2.8610    7.0010    2.0360 n4        1 MOL     -0.416009
     28 H8         -1.5510    2.2560    1.1670 hn        1 MOL      0.171548
     29 H9         -1.7860    5.0930    2.1040 h1        1 MOL      0.084809
     30 H10        -0.3340    3.6150   -0.0430 hc        1 MOL      0.009713
     31 H11         0.3440    4.0210    1.5750 hc        1 MOL      0.009713
     32 H12        -0.3960    5.9550   -0.5840 hc        1 MOL      0.014650
     33 H13         1.2810    5.4070   -0.2260 hc        1 MOL      0.014650
     34 H14        -0.5640    6.9880    1.5520 hc        1 MOL      0.022334
     35 H15         0.7550    7.6470    0.5210 hc        1 MOL      0.022334
     36 H16         1.5000    5.4480    2.3770 hx        1 MOL      0.135561
     37 H17         1.0250    7.0650    3.1610 hx        1 MOL      0.135561
     38 H18         3.5150    6.7630    2.7630 hn        1 MOL      0.344715
     39 H19         3.0680    6.5970    1.1320 hn        1 MOL      0.344715
     40 H20         2.9480    8.0130    2.0540 hn        1 MOL      0.344715
     41 N4         -3.2830    4.0650   -0.5330 n         1 MOL     -0.328906
     42 C13        -3.8440    4.4660   -1.7350 c3        1 MOL     -0.066063
     43 C14        -5.1620    3.7150   -2.0440 c         1 MOL      0.504615
     44 O6         -5.7940    3.9120   -3.0480 o         1 MOL     -0.500933
     45 C15        -2.7850    4.2670   -2.8960 c3        1 MOL     -0.039836
     46 C16        -1.9720    2.9750   -2.8470 c         1 MOL      0.916903
     47 O7         -1.0470    2.8400   -3.7190 o         1 MOL     -0.782452
     48 O8         -2.3100    2.0200   -2.1430 o         1 MOL     -0.782452
     49 H21        -2.9300    3.1240   -0.4220 hn        1 MOL      0.127118
     50 H22        -4.0070    5.5420   -1.7290 h1        1 MOL      0.099717
     51 H23        -1.9430    4.9570   -2.8350 hc        1 MOL     -0.005380
     52 H24        -3.3770    4.3440   -3.8130 hc        1 MOL     -0.005380
     53 N5         -5.6400    3.0080   -0.9890 n         1 MOL     -0.225802
     54 C17        -7.0600    2.6300   -0.9430 c3        1 MOL     -0.155882
     55 C18        -7.4450    1.3450   -1.7180 c         1 MOL      0.618108
     56 O9         -8.4460    1.3400   -2.4530 o         1 MOL     -0.583808
     57 H25        -5.0720    2.8320   -0.1840 hn        1 MOL      0.199559
     58 H26        -7.7160    3.4290   -1.2820 h1        1 MOL      0.084509
     59 H27        -7.4120    2.5380    0.0840 h1        1 MOL      0.084509
     60 N6         -6.7460    0.2030   -1.5300 n         1 MOL     -0.310664
     61 C19        -6.9750   -1.0920   -2.2060 c3        1 MOL      0.022802
     62 C20        -6.9060   -2.3090   -1.2610 c         1 MOL      0.390563
     63 O10        -7.0420   -3.4540   -1.6370 o         1 MOL     -0.511984
     64 C21        -5.8540   -1.2440   -3.2000 c3        1 MOL     -0.215641
     65 C22        -4.4350   -1.0300   -2.6420 c         1 MOL      0.691798
     66 O11        -4.1920   -1.5860   -1.5390 o         1 MOL     -0.662571
     67 O12        -3.5900   -0.4840   -3.3630 o         1 MOL     -0.662571
     68 H28        -5.9850    0.2360   -0.8720 hn        1 MOL      0.087404
     69 H29        -7.9350   -1.1540   -2.7260 h1        1 MOL      0.122591
     70 H30        -6.1080   -0.4990   -3.9590 hc        1 MOL      0.066549
     71 H31        -5.9030   -2.2580   -3.5920 hc        1 MOL      0.066549
     72 N7         -6.7870   -2.1250    0.0690 n         1 MOL     -0.231664
     73 C23        -6.8060   -3.2130    1.0790 c3        1 MOL     -0.215632
     74 C24        -5.5020   -4.1400    1.1510 c         1 MOL      0.614783
     75 O13        -5.5800   -5.1830    1.6930 o         1 MOL     -0.571992
     76 H32        -6.5190   -1.1860    0.3510 hn        1 MOL      0.209978
     77 H33        -7.6800   -3.8320    0.8660 h1        1 MOL      0.110134
     78 H34        -6.8390   -2.7620    2.0690 h1        1 MOL      0.110134
     79 N8         -4.4160   -3.6890    0.5290 n         1 MOL     -0.380711
     80 C25        -3.2000   -4.5130    0.2110 c3        1 MOL     -0.037455
     81 C26        -2.0120   -3.6030    0.4680 c         1 MOL      0.651024
     82 O14        -2.0650   -2.3710    0.4120 o         1 MOL     -0.742862
     83 C27        -3.1600   -4.9970   -1.2360 c3        1 MOL      0.536326
     84 C28        -3.8670   -6.2990   -1.3990 c3        1 MOL     -0.466781
     85 O15        -3.5940   -4.0850   -2.2560 oh        1 MOL     -0.620630
     86 H35        -4.3800   -2.7450    0.1870 hn        1 MOL      0.251408
     87 H36        -3.0530   -5.3430    0.9090 h1        1 MOL      0.073567
     88 H37        -2.1390   -5.3500   -1.3580 h1        1 MOL     -0.063895
     89 H38        -4.2330   -3.5190   -1.8370 ho        1 MOL      0.402624
     90 H39        -4.8430   -6.2270   -0.9270 hc        1 MOL      0.109483
     91 H40        -3.9090   -6.4330   -2.4820 hc        1 MOL      0.109483
     92 H41        -3.3650   -7.1090   -0.8690 hc        1 MOL      0.109483
     93 N9         -0.9480   -4.1890    0.8420 n         1 MOL     -0.531566
     94 C29         0.3030   -3.4630    1.1090 c3        1 MOL      0.144192
     95 C30         1.4900   -3.7810    0.2050 c         1 MOL      0.394189
     96 O16         1.8480   -4.9760    0.0450 o         1 MOL     -0.550305
     97 C31         0.6510   -3.8130    2.5680 c3        1 MOL     -0.015037
     98 C32        -0.4720   -3.4290    3.5900 c3        1 MOL     -0.073636
     99 C33         2.0140   -3.3360    3.1770 c3        1 MOL     -0.227610
    100 C34        -0.7320   -1.9730    3.7210 c3        1 MOL      0.119394
    101 H42        -0.8920   -5.1960    0.9250 hn        1 MOL      0.300643
    102 H43         0.2040   -2.3770    1.0450 h1        1 MOL      0.158802
    103 H44         0.7780   -4.9030    2.5200 hc        1 MOL      0.031824
    104 H45        -0.2370   -3.8070    4.5820 hc        1 MOL      0.013483
    105 H46        -1.3890   -3.9600    3.3260 hc        1 MOL      0.013483
    106 H47         2.1960   -3.6700    4.1950 hc        1 MOL      0.060863
    107 H48         2.7610   -3.7690    2.5220 hc        1 MOL      0.060863
    108 H49         2.0640   -2.2400    3.1150 hc        1 MOL      0.060863
    109 H50        -1.5160   -1.8340    4.4620 hc        1 MOL     -0.002173
    110 H51         0.1670   -1.4990    4.1180 hc        1 MOL     -0.002173
    111 H52        -1.0210   -1.4770    2.7920 hc        1 MOL     -0.002173
    112 N10         2.2050   -2.8220   -0.3570 n         1 MOL      0.041204
    113 C35         3.4450   -3.0120   -1.1650 c3        1 MOL     -0.067909
    114 C36         4.7770   -2.7650   -0.4010 c         1 MOL      0.461688
    115 O17         4.7410   -2.4740    0.7910 o         1 MOL     -0.369433
    116 C37         3.3780   -1.9300   -2.3060 c3        1 MOL      0.263072
    117 C38         2.2770   -2.1900   -3.2930 c3        1 MOL     -0.440891
    118 O18         3.0790   -0.6600   -1.7850 oh        1 MOL     -0.528209
    119 H53         2.0050   -1.8970   -0.0070 hn        1 MOL     -0.204087
    120 H54         3.5080   -3.9540   -1.6980 h1        1 MOL      0.088787
    121 H55         4.3220   -1.8640   -2.8420 h1        1 MOL      0.013165
    122 H56         2.1570   -0.6900   -1.5060 ho        1 MOL      0.308694
    123 H57         2.3590   -1.7510   -4.2890 hc        1 MOL      0.123993
    124 H58         2.1200   -3.2640   -3.4090 hc        1 MOL      0.123993
    125 H59         1.3440   -1.8370   -2.8690 hc        1 MOL      0.123993
    126 N11         5.9830   -2.8800   -0.9790 n         1 MOL     -0.458123
    127 C39         7.2350   -2.5780   -0.1380 c3        1 MOL     -0.036055
    128 C40         7.3510   -1.1600    0.3510 c         1 MOL      0.331439
    129 O19         7.7750   -0.9530    1.4630 o         1 MOL     -0.466344
    130 C41         8.4880   -2.8620   -0.9470 c3        1 MOL      0.236612
    131 C42         8.6340   -4.4000   -1.2080 c3        1 MOL     -0.425877
    132 O20         8.6560   -2.2080   -2.1290 oh        1 MOL     -0.590184
    133 H60         6.0090   -2.9630   -1.9850 hn        1 MOL      0.286767
    134 H61         7.2000   -3.3010    0.6830 h1        1 MOL      0.168628
    135 H62         9.3080   -2.6210   -0.2740 h1        1 MOL      0.041362
    136 H63         9.6030   -2.2350   -2.3030 ho        1 MOL      0.406869
    137 H64         7.9730   -4.7700   -1.9870 hc        1 MOL      0.120447
    138 H65         9.6410   -4.6340   -1.5480 hc        1 MOL      0.120447
    139 H66         8.3690   -4.9080   -0.2910 hc        1 MOL      0.120447
    140 N12         6.8650   -0.2070   -0.4940 n         1 MOL     -0.244898
    141 C43         6.8370    1.2960   -0.1960 c3        1 MOL     -0.114388
    142 C44         5.6810    1.6340    0.7500 c         1 MOL      0.452966
    143 O21         5.4960    2.7450    1.2030 o         1 MOL     -0.554789
    144 C45         6.8260    2.1950   -1.4000 c3        1 MOL      0.067017
    145 C46         8.1380    1.9400   -2.2550 c3        1 MOL     -0.021068
    146 C47         8.0980    2.6750   -3.6190 c3        1 MOL      0.029420
    147 C48         9.4820    2.6640   -4.2250 c3        1 MOL      0.152902
    148 N13         9.3740    3.0820   -5.6360 n4        1 MOL     -0.380043
    149 H67         6.5350   -0.6000   -1.3650 hn        1 MOL      0.303402
    150 H68         7.7320    1.6020    0.3530 h1        1 MOL      0.122004
    151 H69         6.6840    3.2460   -1.1350 hc        1 MOL      0.014506
    152 H70         5.9550    1.9270   -1.9950 hc        1 MOL      0.014506
    153 H71         8.1720    0.8680   -2.4520 hc        1 MOL      0.003099
    154 H72         8.9570    2.2650   -1.6230 hc        1 MOL      0.003099
    155 H73         7.6880    3.6750   -3.5210 hc        1 MOL      0.014458
    156 H74         7.5080    2.0180   -4.2500 hc        1 MOL      0.014458
    157 H75         9.8190    1.6270   -4.1960 hx        1 MOL      0.042588
    158 H76        10.1730    3.2690   -3.6400 hx        1 MOL      0.042588
    159 H77         9.3690    4.0960   -5.6370 hn        1 MOL      0.307002
    160 H78        10.2170    2.7610   -6.0960 hn        1 MOL      0.307002
    161 H79         8.6270    2.6760   -6.1760 hn        1 MOL      0.307002
    162 N14         4.8740    0.6140    1.1640 n         1 MOL     -0.056368
    163 C49         3.8920    0.8040    2.2840 c3        1 MOL     -0.154130
    164 C50         4.3260    0.1240    3.5830 c         1 MOL      0.397652
    165 O22         3.7720    0.5290    4.6480 o         1 MOL     -0.508935
    166 C51         2.5000    0.3000    1.8020 c3        1 MOL      0.207625
    167 C52         1.8560    1.2400    0.8050 c3        1 MOL     -0.173273
    168 C53         0.6300    0.6200    0.1690 c         1 MOL      0.707521
    169 O23         0.6880   -0.4570   -0.4910 o         1 MOL     -0.645041
    170 O24        -0.4690    1.1470    0.2610 o         1 MOL     -0.645041
    171 H80         4.8730   -0.2380    0.6410 hn        1 MOL      0.047782
    172 H81         3.6720    1.8530    2.4370 h1        1 MOL      0.127440
    173 H82         1.7360    0.2290    2.5690 hc        1 MOL      0.036428
    174 H83         2.6080   -0.7100    1.3910 hc        1 MOL      0.036428
    175 H84         2.6070    1.5860    0.0900 hc        1 MOL      0.017829
    176 H85         1.6090    2.0750    1.4670 hc        1 MOL      0.017829
    177 N15         5.2020   -0.8980    3.4730 n         1 MOL     -0.237909
    178 C54         5.4950   -1.8200    4.5630 c3        1 MOL     -0.181036
    179 H86         6.5480   -2.0970    4.5310 h1        1 MOL      0.094214
    180 H87         5.2740   -1.3400    5.5160 h1        1 MOL      0.094214
    181 H88         4.8820   -2.7150    4.4570 h1        1 MOL      0.094214
    182 H89         5.6980   -1.0720    2.6170 hn        1 MOL      0.199069
    183 Ca1        -1.8670   -0.3570   -1.2870 Ca        1 MOL      1.750720
    184 O25        -0.5020    0.2270   -3.6050 oh        1 MOL     -0.888042
    185 H90        -0.7840    1.1360   -3.4880 ho        1 MOL      0.413757
    186 H91         0.0320    0.2490   -4.3980 ho        1 MOL      0.413757
    187 O26        -1.2240   -2.5550   -2.7740 oh        1 MOL     -0.888042
    188 H92        -0.7220   -2.6660   -3.5720 ho        1 MOL      0.413757
    189 H93        -1.9410   -3.1890   -2.8480 ho        1 MOL      0.413757
@<TRIPOS>BOND
     1    1    2 1   
     2    1    4 1   
     3    1    5 1   
     4    1    6 1   
     5    2    3 2   
     6    2    7 1   
     7    7    8 1   
     8    7   15 1   
     9    8    9 1   
    10    8   11 1   
    11    8   16 1   
    12    9   10 2   
    13    9   19 1   
    14   11   12 1   
    15   11   17 1   
    16   11   18 1   
    17   12   13 1   
    18   12   14 1   
    19   19   20 1   
    20   19   28 1   
    21   20   21 1   
    22   20   23 1   
    23   20   29 1   
    24   21   22 2   
    25   21   41 1   
    26   23   24 1   
    27   23   30 1   
    28   23   31 1   
    29   24   25 1   
    30   24   32 1   
    31   24   33 1   
    32   25   26 1   
    33   25   34 1   
    34   25   35 1   
    35   26   27 1   
    36   26   36 1   
    37   26   37 1   
    38   27   38 1   
    39   27   39 1   
    40   27   40 1   
    41   41   42 1   
    42   41   49 1   
    43   42   43 1   
    44   42   45 1   
    45   42   50 1   
    46   43   44 2   
    47   43   53 1   
    48   45   46 1   
    49   45   51 1   
    50   45   52 1   
    51   46   47 1   
    52   46   48 1   
    53   53   54 1   
    54   53   57 1   
    55   54   55 1   
    56   54   58 1   
    57   54   59 1   
    58   55   56 2   
    59   55   60 1   
    60   60   61 1   
    61   60   68 1   
    62   61   62 1   
    63   61   64 1   
    64   61   69 1   
    65   62   63 2   
    66   62   72 1   
    67   64   65 1   
    68   64   70 1   
    69   64   71 1   
    70   65   66 1   
    71   65   67 1   
    72   72   73 1   
    73   72   76 1   
    74   73   74 1   
    75   73   77 1   
    76   73   78 1   
    77   74   75 2   
    78   74   79 1   
    79   79   80 1   
    80   79   86 1   
    81   80   81 1   
    82   80   83 1   
    83   80   87 1   
    84   81   82 2   
    85   81   93 1   
    86   83   84 1   
    87   83   85 1   
    88   83   88 1   
    89   84   90 1   
    90   84   91 1   
    91   84   92 1   
    92   85   89 1   
    93   93   94 1   
    94   93  101 1   
    95   94   95 1   
    96   94   97 1   
    97   94  102 1   
    98   95   96 2   
    99   95  112 1   
   100   97   98 1   
   101   97   99 1   
   102   97  103 1   
   103   98  100 1   
   104   98  104 1   
   105   98  105 1   
   106   99  106 1   
   107   99  107 1   
   108   99  108 1   
   109  100  109 1   
   110  100  110 1   
   111  100  111 1   
   112  112  113 1   
   113  112  119 1   
   114  113  114 1   
   115  113  116 1   
   116  113  120 1   
   117  114  115 2   
   118  114  126 1   
   119  116  117 1   
   120  116  118 1   
   121  116  121 1   
   122  117  123 1   
   123  117  124 1   
   124  117  125 1   
   125  118  122 1   
   126  126  127 1   
   127  126  133 1   
   128  127  128 1   
   129  127  130 1   
   130  127  134 1   
   131  128  129 2   
   132  128  140 1   
   133  130  131 1   
   134  130  132 1   
   135  130  135 1   
   136  131  137 1   
   137  131  138 1   
   138  131  139 1   
   139  132  136 1   
   140  140  141 1   
   141  140  149 1   
   142  141  142 1   
   143  141  144 1   
   144  141  150 1   
   145  142  143 2   
   146  142  162 1   
   147  144  145 1   
   148  144  151 1   
   149  144  152 1   
   150  145  146 1   
   151  145  153 1   
   152  145  154 1   
   153  146  147 1   
   154  146  155 1   
   155  146  156 1   
   156  147  148 1   
   157  147  157 1   
   158  147  158 1   
   159  148  159 1   
   160  148  160 1   
   161  148  161 1   
   162  162  163 1   
   163  162  171 1   
   164  163  164 1   
   165  163  166 1   
   166  163  172 1   
   167  164  165 2   
   168  164  177 1   
   169  166  167 1   
   170  166  173 1   
   171  166  174 1   
   172  167  168 1   
   173  167  175 1   
   174  167  176 1   
   175  168  169 1   
   176  168  170 1   
   177  177  178 1   
   178  177  182 1   
   179  178  179 1   
   180  178  180 1   
   181  178  181 1   
   182  184  185 1   
   183  184  186 1   
   184  187  188 1   
   185  187  189 1   
@<TRIPOS>SUBSTRUCTURE
     1 MOL         1 TEMP              0 ****  ****    0 ROOT
