@<TRIPOS>MOLECULE
MOL
  175   173     1     0     0
SMALL
resp


@<TRIPOS>ATOM
      1 C1          0.3590    4.4250    5.0590 c3        1 MOL     -0.382295
      2 C2         -0.2860    4.1170    3.7140 c         1 MOL      0.679990
      3 O1          0.4500    3.9120    2.7130 o         1 MOL     -0.548667
      4 H1         -0.1390    3.8510    5.8400 hc        1 MOL      0.091840
      5 H2          1.4140    4.1540    5.0270 hc        1 MOL      0.091840
      6 H3          0.2630    5.4890    5.2740 hc        1 MOL      0.091840
      7 N1         -1.5780    4.1210    3.6900 n         1 MOL     -0.586625
      8 C3         -2.3150    3.7220    2.4700 c3        1 MOL      0.169953
      9 C4         -2.4030    4.8630    1.4780 c         1 MOL      0.477493
     10 O2         -2.9410    6.0080    1.7030 o         1 MOL     -0.598018
     11 C5         -3.6300    3.0940    2.8400 c3        1 MOL     -0.301105
     12 C6         -4.2810    2.4200    1.6450 c         1 MOL      0.783898
     13 O3         -5.5120    2.1420    1.8190 o         1 MOL     -0.698811
     14 O4         -3.6610    2.0990    0.6010 o         1 MOL     -0.698811
     15 H4         -2.0190    4.4050    4.5600 hn        1 MOL      0.324696
     16 H5         -1.7430    2.9010    2.0360 h1        1 MOL      0.086137
     17 H6         -4.3400    3.8210    3.2510 hc        1 MOL      0.070649
     18 H7         -3.4060    2.3470    3.5890 hc        1 MOL      0.070649
     19 N2         -1.9740    4.5720    0.2850 n         1 MOL     -0.380198
     20 C7         -2.2150    5.3510   -0.9920 c3        1 MOL      0.353265
     21 C8         -3.2100    4.7050   -2.0370 c         1 MOL      0.469911
     22 O5         -3.2810    5.3040   -3.1600 o         1 MOL     -0.584591
     23 C9         -0.8390    5.8050   -1.6150 c3        1 MOL     -0.418955
     24 H8         -1.4540    3.7150    0.1310 hn        1 MOL      0.246972
     25 H9         -2.6870    6.3000   -0.7660 h1        1 MOL      0.001300
     26 H10        -0.4240    6.5190   -0.9140 hc        1 MOL      0.103550
     27 H11        -0.2430    4.8900   -1.6950 hc        1 MOL      0.103550
     28 H12        -0.8800    6.0760   -2.6700 hc        1 MOL      0.103550
     29 N3         -3.9780    3.6580   -1.7450 n         1 MOL     -0.466844
     30 C10        -4.9340    3.2860   -2.7920 c3        1 MOL      0.224864
     31 C11        -6.1390    2.4760   -2.3360 c         1 MOL      0.301769
     32 O6         -7.1810    2.5390   -3.0390 o         1 MOL     -0.563984
     33 C12        -4.2740    2.3650   -3.8780 c3        1 MOL     -0.249505
     34 C13        -3.4030    1.1860   -3.3550 c         1 MOL      0.836561
     35 O7         -3.3270    0.9020   -2.1650 o         1 MOL     -0.735554
     36 O8         -2.7590    0.5970   -4.2460 o         1 MOL     -0.735554
     37 H13        -3.9010    3.1440   -0.8780 hn        1 MOL      0.217887
     38 H14        -5.3680    4.2220   -3.1390 h1        1 MOL      0.046385
     39 H15        -3.6940    3.0460   -4.5130 hc        1 MOL      0.052642
     40 H16        -5.0800    2.0230   -4.5310 hc        1 MOL      0.052642
     41 N4         -6.1090    1.7630   -1.2300 n         1 MOL     -0.033784
     42 C14        -7.2980    1.0860   -0.6950 c3        1 MOL     -0.217737
     43 C15        -7.3870   -0.3730   -1.1610 c         1 MOL      0.513684
     44 O9         -8.4000   -0.9840   -1.0370 o         1 MOL     -0.575419
     45 H17        -5.2990    1.8200   -0.6470 hn        1 MOL      0.130427
     46 H18        -8.1970    1.6200   -0.9700 h1        1 MOL      0.114219
     47 H19        -7.3500    1.0190    0.3870 h1        1 MOL      0.114219
     48 N5         -6.2970   -0.9400   -1.7280 n         1 MOL     -0.184901
     49 C16        -6.1770   -2.3390   -2.1640 c3        1 MOL     -0.083804
     50 C17        -6.2380   -3.5050   -1.1320 c         1 MOL      0.498421
     51 O10        -6.4740   -4.6550   -1.4800 o         1 MOL     -0.547300
     52 C18        -4.9490   -2.4490   -3.0660 c3        1 MOL     -0.090415
     53 C19        -3.6060   -2.2960   -2.2880 c         1 MOL      0.355634
     54 N6         -2.5050   -2.3340   -2.9690 n         1 MOL     -0.445673
     55 O11        -3.5190   -2.1090   -1.0750 o         1 MOL     -0.362866
     56 H20        -5.4230   -0.4320   -1.7520 hn        1 MOL      0.096471
     57 H21        -7.0370   -2.5650   -2.7900 h1        1 MOL      0.086981
     58 H22        -5.0060   -1.7450   -3.8950 hc        1 MOL      0.057699
     59 H23        -4.9700   -3.4400   -3.5170 hc        1 MOL      0.057699
     60 H24        -2.6440   -2.4960   -3.9510 hn        1 MOL      0.279479
     61 H25        -1.6150   -2.3670   -2.4770 hn        1 MOL      0.279479
     62 N7         -5.9640   -3.1810    0.1620 n         1 MOL     -0.256644
     63 C20        -5.9890   -4.1530    1.2050 c3        1 MOL     -0.073427
     64 C21        -4.6390   -4.6200    1.6400 c         1 MOL      0.513153
     65 O12        -4.5970   -5.2060    2.6820 o         1 MOL     -0.610783
     66 H26        -5.7680   -2.2030    0.3410 hn        1 MOL      0.188301
     67 H27        -6.6670   -4.8950    0.7820 h1        1 MOL      0.071709
     68 H28        -6.5610   -3.8150    2.0590 h1        1 MOL      0.071709
     69 N8         -3.4880   -4.1920    1.0620 n         1 MOL     -0.129795
     70 C22        -2.0850   -4.5940    1.4190 c3        1 MOL     -0.239577
     71 C23        -1.3490   -3.3270    1.8290 c         1 MOL      0.771512
     72 O13        -1.6280   -2.2180    1.3540 o         1 MOL     -0.721910
     73 C24        -1.4930   -5.4350    0.2520 c3        1 MOL      0.586387
     74 C25        -1.8880   -6.8920    0.4610 c3        1 MOL     -0.372527
     75 O14        -1.8520   -4.8520   -1.0250 oh        1 MOL     -0.668746
     76 H29        -3.5370   -3.5260    0.3040 hn        1 MOL      0.094164
     77 H30        -2.1220   -5.2140    2.3070 h1        1 MOL      0.088035
     78 H31        -0.4040   -5.4190    0.3600 h1        1 MOL     -0.044297
     79 H32        -1.3770   -4.0390   -1.1500 ho        1 MOL      0.393516
     80 H33        -1.5050   -7.1940    1.4390 hc        1 MOL      0.081314
     81 H34        -2.9730   -6.9650    0.3880 hc        1 MOL      0.081314
     82 H35        -1.3830   -7.4400   -0.3310 hc        1 MOL      0.081314
     83 N9         -0.3250   -3.5570    2.6510 n         1 MOL     -0.748061
     84 C26         0.8590   -2.6660    2.6190 c3        1 MOL      0.094210
     85 C27         1.6400   -2.9500    1.3610 c         1 MOL      0.624919
     86 O15         1.8690   -4.1170    1.1130 o         1 MOL     -0.559267
     87 C28         1.6950   -2.6820    3.9130 c3        1 MOL      0.131505
     88 C29         0.8320   -1.9630    4.9930 c3        1 MOL     -0.056732
     89 C30         3.1420   -2.2270    3.7750 c3        1 MOL     -0.243698
     90 C31         1.6470   -1.5200    6.2440 c3        1 MOL     -0.098290
     91 H36        -0.3020   -4.4730    3.0700 hn        1 MOL      0.352996
     92 H37         0.5450   -1.6300    2.4890 h1        1 MOL      0.143206
     93 H38         1.8230   -3.7310    4.1780 hc        1 MOL      0.009466
     94 H39         0.1280   -2.6620    5.4360 hc        1 MOL      0.021884
     95 H40         0.2980   -1.0640    4.6820 hc        1 MOL      0.021884
     96 H41         3.7750   -2.8640    3.1660 hc        1 MOL      0.048675
     97 H42         3.2370   -1.2130    3.3860 hc        1 MOL      0.048675
     98 H43         3.6150   -2.0670    4.7330 hc        1 MOL      0.048675
     99 H44         2.3960   -2.2190    6.6210 hc        1 MOL      0.024522
    100 H45         2.2460   -0.6260    6.0630 hc        1 MOL      0.024522
    101 H46         1.0060   -1.2910    7.0940 hc        1 MOL      0.024522
    102 N10         2.0330   -1.8740    0.6280 n         1 MOL     -0.524995
    103 C32         2.6930   -1.8740   -0.6190 c3        1 MOL      0.205144
    104 C33         4.0720   -1.3730   -0.5430 c         1 MOL      0.687499
    105 O16         4.4200   -0.6350    0.3720 o         1 MOL     -0.577520
    106 C34         1.8340   -1.3400   -1.8040 c3        1 MOL     -0.267704
    107 C35         0.3370   -1.6720   -1.6950 c         1 MOL      0.905340
    108 O17        -0.4230   -0.7010   -1.7010 o         1 MOL     -0.740285
    109 O18         0.0080   -2.8710   -1.7200 o         1 MOL     -0.740285
    110 H47         1.8700   -0.9390    0.9860 hn        1 MOL      0.198024
    111 H48         2.8960   -2.9230   -0.8050 h1        1 MOL      0.010381
    112 H49         2.2260   -1.8090   -2.6990 hc        1 MOL      0.051898
    113 H50         1.9650   -0.2710   -1.9040 hc        1 MOL      0.051898
    114 N11         4.8880   -1.6300   -1.5270 n         1 MOL     -0.720742
    115 C36         6.3210   -1.3380   -1.4630 c3        1 MOL      0.453500
    116 C37         6.6770    0.1050   -1.1150 c         1 MOL      0.286573
    117 O19         7.3090    0.2900   -0.0770 o         1 MOL     -0.517601
    118 C38         6.9760   -1.9340   -2.6970 c3        1 MOL     -0.126936
    119 C39         8.4980   -2.0480   -2.7730 ca        1 MOL      0.054782
    120 C40         9.2000   -3.1110   -2.1550 ca        1 MOL     -0.145938
    121 C41         9.2230   -0.9750   -3.3010 ca        1 MOL     -0.145938
    122 C42        10.5790   -2.9880   -1.9990 ca        1 MOL     -0.131458
    123 C43        10.5490   -0.8810   -3.1760 ca        1 MOL     -0.131458
    124 C44        11.2290   -1.8380   -2.4620 ca        1 MOL     -0.054739
    125 H51         4.5450   -2.1010   -2.3610 hn        1 MOL      0.315956
    126 H52         6.7650   -1.8400   -0.5970 h1        1 MOL      0.001733
    127 H53         6.6500   -1.4130   -3.5940 hc        1 MOL      0.032731
    128 H54         6.7070   -2.9840   -2.7280 hc        1 MOL      0.032731
    129 H55         8.5960   -3.8990   -1.7340 ha        1 MOL      0.112765
    130 H56         8.6320   -0.2090   -3.7860 ha        1 MOL      0.112765
    131 H57        11.1620   -3.7590   -1.5240 ha        1 MOL      0.112070
    132 H58        11.1360   -0.0460   -3.5250 ha        1 MOL      0.112070
    133 H59        12.3030   -1.7510   -2.3560 ha        1 MOL      0.081317
    134 N12         6.2800    1.1070   -1.9140 n         1 MOL     -0.002413
    135 C45         6.5450    2.4780   -1.5330 c3        1 MOL     -0.045567
    136 C46         5.9570    2.8540   -0.0960 c         1 MOL      0.364756
    137 O20         6.4920    3.7190    0.6060 o         1 MOL     -0.517882
    138 C47         5.9090    3.2610   -2.6730 c3        1 MOL     -0.196621
    139 C48         4.8420    2.3590   -3.2910 c3        1 MOL      0.041872
    140 C49         5.4910    0.9710   -3.1210 c3        1 MOL     -0.085207
    141 H60         7.5970    2.7310   -1.6700 h1        1 MOL      0.084597
    142 H61         5.4200    4.1860   -2.3900 hc        1 MOL      0.079518
    143 H62         6.6690    3.3550   -3.4470 hc        1 MOL      0.079518
    144 H63         3.8850    2.4830   -2.7970 hc        1 MOL      0.027502
    145 H64         4.7530    2.6430   -4.3410 hc        1 MOL      0.027502
    146 H65         4.6270    0.3070   -3.0680 h1        1 MOL      0.038118
    147 H66         6.1490    0.8180   -3.9820 h1        1 MOL      0.038118
    148 N13         4.8760    2.2300    0.3500 n         1 MOL     -0.071512
    149 C50         4.1850    2.4020    1.6680 c3        1 MOL     -0.223529
    150 C51         4.9540    1.7400    2.8250 c         1 MOL      0.454103
    151 O21         5.0190    2.4180    3.8710 o         1 MOL     -0.565710
    152 C52         2.7650    1.8060    1.7140 c3        1 MOL      0.118704
    153 C53         1.9160    2.1950    0.4640 c3        1 MOL     -0.519251
    154 C54         0.4970    1.6330    0.5730 c         1 MOL      0.765533
    155 O22         0.2240    0.6290    1.2470 o         1 MOL     -0.738986
    156 O23        -0.4460    2.0910   -0.1550 o         1 MOL     -0.738986
    157 H67         4.4250    1.5760   -0.2700 hn        1 MOL      0.180544
    158 H68         4.0220    3.4610    1.8550 h1        1 MOL      0.155139
    159 H69         2.2400    2.0630    2.6390 hc        1 MOL      0.031133
    160 H70         2.7830    0.7130    1.7880 hc        1 MOL      0.031133
    161 H71         2.2770    1.7430   -0.4520 hc        1 MOL      0.156519
    162 H72         1.9550    3.2890    0.4720 hc        1 MOL      0.156519
    163 N14         5.5470    0.5670    2.6660 n         1 MOL      0.020565
    164 C55         6.4540    0.1160    3.6300 c3        1 MOL     -0.255417
    165 H73         7.4640    0.4110    3.3440 h1        1 MOL      0.078990
    166 H74         6.2080    0.5550    4.5960 h1        1 MOL      0.078990
    167 H75         6.4000   -0.9710    3.7000 h1        1 MOL      0.078990
    168 H76         5.5550    0.1680    1.7360 hn        1 MOL      0.173515
    169 Ca1        -2.0880    0.1550   -0.0060 Ca        1 MOL      1.728561
    170 O24        -4.9520   -0.5510    0.9670 oh        1 MOL     -0.783105
    171 H77        -5.3460   -0.7960    1.8020 ho        1 MOL      0.394526
    172 H78        -5.1550    0.3670    0.8610 ho        1 MOL      0.394526
    173 O25        -2.1200    0.3170    2.6440 oh        1 MOL     -0.783105
    174 H79        -1.1800    0.1740    2.6400 ho        1 MOL      0.394526
    175 H80        -2.3500    0.3300    3.5780 ho        1 MOL      0.394526
@<TRIPOS>BOND
     1    1    2 1   
     2    1    4 1   
     3    1    5 1   
     4    1    6 1   
     5    2    3 2   
     6    2    7 1   
     7    7    8 1   
     8    7   15 1   
     9    8    9 1   
    10    8   11 1   
    11    8   16 1   
    12    9   10 2   
    13    9   19 1   
    14   11   12 1   
    15   11   17 1   
    16   11   18 1   
    17   12   13 1   
    18   12   14 1   
    19   19   20 1   
    20   19   24 1   
    21   20   21 1   
    22   20   23 1   
    23   20   25 1   
    24   21   22 2   
    25   21   29 1   
    26   23   26 1   
    27   23   27 1   
    28   23   28 1   
    29   29   30 1   
    30   29   37 1   
    31   30   31 1   
    32   30   33 1   
    33   30   38 1   
    34   31   32 2   
    35   31   41 1   
    36   33   34 1   
    37   33   39 1   
    38   33   40 1   
    39   34   35 1   
    40   34   36 1   
    41   41   42 1   
    42   41   45 1   
    43   42   43 1   
    44   42   46 1   
    45   42   47 1   
    46   43   44 2   
    47   43   48 1   
    48   48   49 1   
    49   48   56 1   
    50   49   50 1   
    51   49   52 1   
    52   49   57 1   
    53   50   51 2   
    54   50   62 1   
    55   52   53 1   
    56   52   58 1   
    57   52   59 1   
    58   53   54 1   
    59   53   55 2   
    60   54   60 1   
    61   54   61 1   
    62   62   63 1   
    63   62   66 1   
    64   63   64 1   
    65   63   67 1   
    66   63   68 1   
    67   64   65 2   
    68   64   69 1   
    69   69   70 1   
    70   69   76 1   
    71   70   71 1   
    72   70   73 1   
    73   70   77 1   
    74   71   72 2   
    75   71   83 1   
    76   73   74 1   
    77   73   75 1   
    78   73   78 1   
    79   74   80 1   
    80   74   81 1   
    81   74   82 1   
    82   75   79 1   
    83   83   84 1   
    84   83   91 1   
    85   84   85 1   
    86   84   87 1   
    87   84   92 1   
    88   85   86 2   
    89   85  102 1   
    90   87   88 1   
    91   87   89 1   
    92   87   93 1   
    93   88   90 1   
    94   88   94 1   
    95   88   95 1   
    96   89   96 1   
    97   89   97 1   
    98   89   98 1   
    99   90   99 1   
   100   90  100 1   
   101   90  101 1   
   102  102  103 1   
   103  102  110 1   
   104  103  104 1   
   105  103  106 1   
   106  103  111 1   
   107  104  105 2   
   108  104  114 1   
   109  106  107 1   
   110  106  112 1   
   111  106  113 1   
   112  107  108 1   
   113  107  109 1   
   114  114  115 1   
   115  114  125 1   
   116  115  116 1   
   117  115  118 1   
   118  115  126 1   
   119  116  117 2   
   120  116  134 1   
   121  118  119 1   
   122  118  127 1   
   123  118  128 1   
   124  119  120 ar  
   125  119  121 ar  
   126  120  122 ar  
   127  120  129 1   
   128  121  123 ar  
   129  121  130 1   
   130  122  124 ar  
   131  122  131 1   
   132  123  124 ar  
   133  123  132 1   
   134  124  133 1   
   135  134  135 1   
   136  134  140 1   
   137  135  136 1   
   138  135  138 1   
   139  135  141 1   
   140  136  137 2   
   141  136  148 1   
   142  138  139 1   
   143  138  142 1   
   144  138  143 1   
   145  139  140 1   
   146  139  144 1   
   147  139  145 1   
   148  140  146 1   
   149  140  147 1   
   150  148  149 1   
   151  148  157 1   
   152  149  150 1   
   153  149  152 1   
   154  149  158 1   
   155  150  151 2   
   156  150  163 1   
   157  152  153 1   
   158  152  159 1   
   159  152  160 1   
   160  153  154 1   
   161  153  161 1   
   162  153  162 1   
   163  154  155 1   
   164  154  156 1   
   165  163  164 1   
   166  163  168 1   
   167  164  165 1   
   168  164  166 1   
   169  164  167 1   
   170  170  171 1   
   171  170  172 1   
   172  173  174 1   
   173  173  175 1   
@<TRIPOS>SUBSTRUCTURE
     1 MOL         1 TEMP              0 ****  ****    0 ROOT
