@<TRIPOS>MOLECULE
MOL
  172   171     1     0     0
SMALL
resp


@<TRIPOS>ATOM
      1 C1         -0.3710   -3.7940    5.6140 c3        1 MOL     -0.373790
      2 C2          0.3610   -3.9090    4.3080 c         1 MOL      0.669942
      3 O1         -0.2520   -4.3270    3.3050 o         1 MOL     -0.588406
      4 H1          0.3380   -3.5650    6.4090 hc        1 MOL      0.089266
      5 H2         -1.1120   -2.9960    5.5480 hc        1 MOL      0.089266
      6 H3         -0.8710   -4.7370    5.8350 hc        1 MOL      0.089266
      7 N1          1.5570   -3.3800    4.1600 n         1 MOL     -0.524669
      8 C3          2.1990   -2.9510    2.8970 c3        1 MOL      0.238384
      9 C4          2.4610   -4.1990    1.9780 c         1 MOL      0.514785
     10 O2          3.2240   -5.0400    2.4360 o         1 MOL     -0.597238
     11 C5          3.5350   -2.2430    3.0930 c3        1 MOL     -0.627787
     12 C6          4.3260   -2.0320    1.7570 c         1 MOL      0.851180
     13 O3          5.5480   -1.8670    1.7660 o         1 MOL     -0.661454
     14 O4          3.6170   -1.8290    0.7320 o         1 MOL     -0.661454
     15 H4          2.0760   -3.1710    5.0070 hn        1 MOL      0.298498
     16 H5          1.4950   -2.2570    2.4250 h1        1 MOL      0.051861
     17 H6          4.2230   -2.8930    3.6230 hc        1 MOL      0.131887
     18 H7          3.2850   -1.3600    3.6890 hc        1 MOL      0.131887
     19 N2          1.8770   -4.3290    0.8130 n         1 MOL     -0.339807
     20 C7          2.1030   -5.4320   -0.2310 c3        1 MOL      0.140410
     21 C8          3.2740   -5.1870   -1.2610 c         1 MOL      0.666760
     22 O5          3.5000   -6.0800   -2.0180 o         1 MOL     -0.588036
     23 C9          0.6960   -5.5840   -0.9280 c3        1 MOL     -0.200340
     24 H8          1.3240   -3.5460    0.4830 hn        1 MOL      0.225385
     25 H9          2.4390   -6.3810    0.1890 h1        1 MOL      0.020126
     26 H10        -0.0190   -5.9740   -0.2010 hc        1 MOL      0.050439
     27 H11         0.3600   -4.5840   -1.2150 hc        1 MOL      0.050439
     28 H12         0.6930   -6.3400   -1.7160 hc        1 MOL      0.050439
     29 N3          4.0310   -4.0490   -1.3240 n         1 MOL     -0.682798
     30 C10         4.7790   -3.6390   -2.5700 c3        1 MOL      0.324734
     31 C11         6.0330   -2.8240   -2.2100 c         1 MOL      0.292846
     32 O6          6.9200   -2.8310   -3.1670 o         1 MOL     -0.577684
     33 C12         3.8370   -2.7950   -3.4580 c3        1 MOL     -0.311880
     34 C13         3.0530   -1.6670   -2.7980 c         1 MOL      0.776516
     35 O7          3.7510   -0.8380   -2.2430 o         1 MOL     -0.679402
     36 O8          1.8270   -1.4940   -2.9360 o         1 MOL     -0.679402
     37 H13         3.9180   -3.3320   -0.6180 hn        1 MOL      0.306224
     38 H14         5.1340   -4.4780   -3.1800 h1        1 MOL      0.051883
     39 H15         3.0890   -3.5490   -3.7170 hc        1 MOL      0.055547
     40 H16         4.2800   -2.3140   -4.3300 hc        1 MOL      0.055547
     41 N4          6.1700   -2.2080   -1.0550 n         1 MOL     -0.057399
     42 C14         7.3670   -1.3670   -0.7620 c3        1 MOL     -0.224223
     43 C15         7.3340    0.0880   -1.2950 c         1 MOL      0.537213
     44 O9          8.4140    0.6670   -1.3090 o         1 MOL     -0.627975
     45 H17         5.4690   -2.1380   -0.3400 hn        1 MOL      0.081218
     46 H18         8.2380   -1.8940   -1.1370 h1        1 MOL      0.111322
     47 H19         7.3960   -1.2270    0.3190 h1        1 MOL      0.111322
     48 N5          6.2350    0.6320   -1.7550 n         1 MOL     -0.147524
     49 C16         6.1990    1.9930   -2.3500 c3        1 MOL      0.088894
     50 C17         6.1090    3.1140   -1.2700 c         1 MOL      0.411631
     51 O10         5.8330    4.2770   -1.6050 o         1 MOL     -0.534924
     52 C18         5.1080    2.0470   -3.4120 c3        1 MOL     -0.286302
     53 C19         3.6670    2.1060   -2.9110 c         1 MOL      0.584750
     54 N6          2.6550    2.1280   -3.7970 n         1 MOL     -0.547442
     55 O11         3.4350    2.0160   -1.7090 o         1 MOL     -0.619364
     56 H20         5.4400    0.0280   -1.8730 hn        1 MOL      0.130963
     57 H21         7.1500    2.1160   -2.8670 h1        1 MOL      0.071767
     58 H22         5.2210    1.1960   -4.0750 hc        1 MOL      0.087827
     59 H23         5.2470    2.9520   -3.9960 hc        1 MOL      0.087827
     60 H24         2.9480    2.3080   -4.7350 hn        1 MOL      0.278504
     61 H25         1.6610    2.1480   -3.6030 hn        1 MOL      0.278504
     62 N7          6.2180    2.7770   -0.0080 n         1 MOL     -0.302215
     63 C20         6.3270    3.7590    1.0530 c3        1 MOL     -0.119662
     64 C21         5.0190    4.1570    1.7700 c         1 MOL      0.512776
     65 O12         5.0490    4.4110    2.9440 o         1 MOL     -0.589015
     66 H26         6.0680    1.8090    0.2340 hn        1 MOL      0.257754
     67 H27         6.8320    4.6680    0.7190 h1        1 MOL      0.096268
     68 H28         7.1190    3.3240    1.6690 h1        1 MOL      0.096268
     69 N8          3.8850    4.0320    1.1130 n         1 MOL     -0.222585
     70 C22         2.5520    4.4680    1.5860 c3        1 MOL     -0.151236
     71 C23         1.4640    3.4390    1.3650 c         1 MOL      0.698584
     72 O13         1.4900    2.6800    0.4090 o         1 MOL     -0.537600
     73 C24         2.1530    5.7710    0.8970 c3        1 MOL      0.347906
     74 C25         2.9730    6.9480    1.3760 c3        1 MOL     -0.355884
     75 O14         2.4270    5.8370   -0.4900 oh        1 MOL     -0.609123
     76 H29         3.8530    3.6410    0.1790 hn        1 MOL      0.281163
     77 H30         2.5360    4.6200    2.6650 h1        1 MOL      0.086251
     78 H31         1.1190    6.0650    1.0250 h1        1 MOL      0.022867
     79 H32         1.7880    5.4120   -1.0560 ho        1 MOL      0.401648
     80 H33         2.5580    7.8230    0.8740 hc        1 MOL      0.089607
     81 H34         2.7560    7.0680    2.4450 hc        1 MOL      0.089607
     82 H35         4.0250    6.8290    1.1360 hc        1 MOL      0.089607
     83 N9          0.5310    3.4300    2.2780 n         1 MOL     -0.705928
     84 C26        -0.7200    2.6470    2.1260 c3        1 MOL      0.066577
     85 C27        -1.3840    2.9510    0.7800 c         1 MOL      0.412833
     86 O15        -1.6600    4.0790    0.4770 o         1 MOL     -0.578509
     87 C28        -1.7040    2.8480    3.3540 c3        1 MOL      0.138673
     88 C29        -1.1880    2.1360    4.6040 c3        1 MOL      0.006167
     89 C30        -3.1930    2.4830    3.1230 c3        1 MOL     -0.142647
     90 C31        -2.0870    2.0260    5.7550 c3        1 MOL      0.075498
     91 H36         0.6880    4.0760    3.0450 hn        1 MOL      0.332583
     92 H37        -0.4450    1.5910    2.1180 h1        1 MOL      0.102400
     93 H38        -1.6780    3.9130    3.6060 hc        1 MOL     -0.014068
     94 H39        -0.2700    2.5910    4.9940 hc        1 MOL     -0.021674
     95 H40        -0.9630    1.1370    4.2510 hc        1 MOL     -0.021674
     96 H41        -3.7670    2.8970    3.9400 hc        1 MOL      0.009497
     97 H42        -3.5690    2.9340    2.2030 hc        1 MOL      0.009497
     98 H43        -3.4390    1.4420    2.9270 hc        1 MOL      0.009497
     99 H44        -2.4140    3.0150    6.0810 hc        1 MOL     -0.022813
    100 H45        -2.9650    1.4050    5.5640 hc        1 MOL     -0.022813
    101 H46        -1.6260    1.6250    6.6560 hc        1 MOL     -0.022813
    102 N10        -1.7760    1.9270    0.0790 n         1 MOL     -0.040186
    103 C32        -2.6230    2.0670   -1.1370 c3        1 MOL      0.118548
    104 C33        -3.9650    1.6100   -0.7180 c         1 MOL      0.360307
    105 O16        -4.2710    0.9860    0.3370 o         1 MOL     -0.197544
    106 C34        -2.0000    1.1330   -2.2340 c3        1 MOL     -0.492023
    107 C35        -0.4970    1.3340   -2.4930 c         1 MOL      0.819228
    108 O17         0.3330    0.8960   -1.7130 o         1 MOL     -0.678572
    109 O18        -0.1170    1.7970   -3.5680 o         1 MOL     -0.678572
    110 H47        -1.4910    1.0190    0.4130 hn        1 MOL      0.022789
    111 H48        -2.6750    3.0850   -1.5040 h1        1 MOL      0.086179
    112 H49        -2.5870    1.1700   -3.1530 hc        1 MOL      0.121605
    113 H50        -2.0710    0.0530   -2.0630 hc        1 MOL      0.121605
    114 N11        -4.9690    1.8660   -1.6250 n         1 MOL     -0.647661
    115 C36        -6.4320    1.5310   -1.4250 c3        1 MOL      0.305746
    116 C37        -6.6560    0.0420   -0.9690 c         1 MOL      0.446299
    117 O19        -7.2990   -0.2140    0.0850 o         1 MOL     -0.516969
    118 C38        -7.3120    1.9330   -2.5700 c3        1 MOL     -0.138288
    119 C39        -8.8140    1.7310   -2.3720 ca        1 MOL      0.055034
    120 C40        -9.5210    2.0350   -1.2070 ca        1 MOL     -0.133871
    121 C41        -9.5790    1.0130   -3.3800 ca        1 MOL     -0.133871
    122 C42       -10.9000    1.7290   -1.0470 ca        1 MOL     -0.172743
    123 C43       -10.9110    0.5880   -3.1970 ca        1 MOL     -0.172743
    124 C44       -11.5660    0.9220   -2.0080 ca        1 MOL     -0.032362
    125 H51        -4.7020    2.3160   -2.4910 hn        1 MOL      0.345957
    126 H52        -6.7240    2.0780   -0.5260 h1        1 MOL      0.034072
    127 H53        -7.0240    1.2740   -3.3860 hc        1 MOL      0.045273
    128 H54        -7.1580    2.9850   -2.8320 hc        1 MOL      0.045273
    129 H55        -9.1580    2.6430   -0.3850 ha        1 MOL      0.111619
    130 H56        -9.0720    0.6050   -4.2460 ha        1 MOL      0.111619
    131 H57       -11.3790    1.9130   -0.1000 ha        1 MOL      0.127625
    132 H58       -11.4910   -0.0000   -3.8900 ha        1 MOL      0.127625
    133 H59       -12.6010    0.6360   -1.8830 ha        1 MOL      0.079529
    134 N12        -6.1990   -0.9610   -1.7580 n         1 MOL     -0.130336
    135 C45        -6.3190   -2.3780   -1.3690 c3        1 MOL     -0.161127
    136 C46        -5.6750   -2.7890   -0.0780 c         1 MOL      0.433477
    137 O20        -5.9880   -3.8460    0.4840 o         1 MOL     -0.541779
    138 C47        -5.7830   -3.2290   -2.5310 c3        1 MOL     -0.158776
    139 C48        -4.7490   -2.2940   -3.1290 c3        1 MOL      0.170721
    140 C49        -5.3540   -0.8810   -2.9840 c3        1 MOL     -0.100587
    141 H60        -7.3890   -2.5800   -1.2850 h1        1 MOL      0.114913
    142 H61        -5.3320   -4.2000   -2.2970 hc        1 MOL      0.078911
    143 H62        -6.5140   -3.3630   -3.3300 hc        1 MOL      0.078911
    144 H63        -3.8530   -2.2870   -2.5020 hc        1 MOL     -0.013556
    145 H64        -4.5830   -2.5980   -4.1570 hc        1 MOL     -0.013556
    146 H65        -4.5470   -0.1900   -2.7500 h1        1 MOL      0.044212
    147 H66        -5.7870   -0.6440   -3.9480 h1        1 MOL      0.044212
    148 N13        -4.8020   -1.9500    0.4500 n         1 MOL     -0.051287
    149 C50        -4.0950   -2.0910    1.7540 c3        1 MOL     -0.190215
    150 C51        -4.8560   -1.3150    2.8890 c         1 MOL      0.461775
    151 O21        -5.0060   -1.8300    3.9830 o         1 MOL     -0.547661
    152 C52        -2.6050   -1.5980    1.6630 c3        1 MOL     -0.054510
    153 C53        -1.7390   -2.0760    0.4900 c3        1 MOL      0.002811
    154 C54        -0.2770   -1.6090    0.5050 c         1 MOL      0.672274
    155 O22         0.1180   -0.6990    1.2070 o         1 MOL     -0.732581
    156 O23         0.5370   -2.0960   -0.2990 o         1 MOL     -0.732581
    157 H67        -4.5750   -1.0550    0.0340 hn        1 MOL      0.126996
    158 H68        -4.1210   -3.1560    1.9770 h1        1 MOL      0.138419
    159 H69        -2.0690   -1.8770    2.5720 hc        1 MOL      0.067317
    160 H70        -2.4980   -0.5150    1.5740 hc        1 MOL      0.067317
    161 H71        -2.0710   -1.6950   -0.4810 hc        1 MOL      0.023029
    162 H72        -1.8080   -3.1660    0.5160 hc        1 MOL      0.023029
    163 N14        -5.4370   -0.1210    2.6290 n         1 MOL      0.037588
    164 C55        -6.4560    0.4700    3.5650 c3        1 MOL     -0.308992
    165 H73        -6.0130    0.5930    4.5530 h1        1 MOL      0.105421
    166 H74        -6.7760    1.4410    3.1880 h1        1 MOL      0.105421
    167 H75        -7.3170   -0.1960    3.6340 h1        1 MOL      0.105421
    168 H76        -5.3970    0.2880    1.7150 hn        1 MOL     -0.018022
    169 Ca1         2.3140   -0.0260   -0.3340 Ca        1 MOL      1.735507
    170 O24         4.1540    0.8960    1.5220 oh        1 MOL     -0.988265
    171 H77         3.7060    0.9240    2.3650 ho        1 MOL      0.458197
    172 H78         5.0740    0.7550    1.7330 ho        1 MOL      0.458197
@<TRIPOS>BOND
     1    1    2 1   
     2    1    4 1   
     3    1    5 1   
     4    1    6 1   
     5    2    3 2   
     6    2    7 1   
     7    7    8 1   
     8    7   15 1   
     9    8    9 1   
    10    8   11 1   
    11    8   16 1   
    12    9   10 2   
    13    9   19 1   
    14   11   12 1   
    15   11   17 1   
    16   11   18 1   
    17   12   13 1   
    18   12   14 1   
    19   19   20 1   
    20   19   24 1   
    21   20   21 1   
    22   20   23 1   
    23   20   25 1   
    24   21   22 2   
    25   21   29 1   
    26   23   26 1   
    27   23   27 1   
    28   23   28 1   
    29   29   30 1   
    30   29   37 1   
    31   30   31 1   
    32   30   33 1   
    33   30   38 1   
    34   31   32 2   
    35   31   41 1   
    36   33   34 1   
    37   33   39 1   
    38   33   40 1   
    39   34   35 1   
    40   34   36 1   
    41   41   42 1   
    42   41   45 1   
    43   42   43 1   
    44   42   46 1   
    45   42   47 1   
    46   43   44 2   
    47   43   48 1   
    48   48   49 1   
    49   48   56 1   
    50   49   50 1   
    51   49   52 1   
    52   49   57 1   
    53   50   51 2   
    54   50   62 1   
    55   52   53 1   
    56   52   58 1   
    57   52   59 1   
    58   53   54 1   
    59   53   55 2   
    60   54   60 1   
    61   54   61 1   
    62   62   63 1   
    63   62   66 1   
    64   63   64 1   
    65   63   67 1   
    66   63   68 1   
    67   64   65 2   
    68   64   69 1   
    69   69   70 1   
    70   69   76 1   
    71   70   71 1   
    72   70   73 1   
    73   70   77 1   
    74   71   72 2   
    75   71   83 1   
    76   73   74 1   
    77   73   75 1   
    78   73   78 1   
    79   74   80 1   
    80   74   81 1   
    81   74   82 1   
    82   75   79 1   
    83   83   84 1   
    84   83   91 1   
    85   84   85 1   
    86   84   87 1   
    87   84   92 1   
    88   85   86 2   
    89   85  102 1   
    90   87   88 1   
    91   87   89 1   
    92   87   93 1   
    93   88   90 1   
    94   88   94 1   
    95   88   95 1   
    96   89   96 1   
    97   89   97 1   
    98   89   98 1   
    99   90   99 1   
   100   90  100 1   
   101   90  101 1   
   102  102  103 1   
   103  102  110 1   
   104  103  104 1   
   105  103  106 1   
   106  103  111 1   
   107  104  105 2   
   108  104  114 1   
   109  106  107 1   
   110  106  112 1   
   111  106  113 1   
   112  107  108 1   
   113  107  109 1   
   114  114  115 1   
   115  114  125 1   
   116  115  116 1   
   117  115  118 1   
   118  115  126 1   
   119  116  117 2   
   120  116  134 1   
   121  118  119 1   
   122  118  127 1   
   123  118  128 1   
   124  119  120 ar  
   125  119  121 ar  
   126  120  122 ar  
   127  120  129 1   
   128  121  123 ar  
   129  121  130 1   
   130  122  124 ar  
   131  122  131 1   
   132  123  124 ar  
   133  123  132 1   
   134  124  133 1   
   135  134  135 1   
   136  134  140 1   
   137  135  136 1   
   138  135  138 1   
   139  135  141 1   
   140  136  137 2   
   141  136  148 1   
   142  138  139 1   
   143  138  142 1   
   144  138  143 1   
   145  139  140 1   
   146  139  144 1   
   147  139  145 1   
   148  140  146 1   
   149  140  147 1   
   150  148  149 1   
   151  148  157 1   
   152  149  150 1   
   153  149  152 1   
   154  149  158 1   
   155  150  151 2   
   156  150  163 1   
   157  152  153 1   
   158  152  159 1   
   159  152  160 1   
   160  153  154 1   
   161  153  161 1   
   162  153  162 1   
   163  154  155 1   
   164  154  156 1   
   165  163  164 1   
   166  163  168 1   
   167  164  165 1   
   168  164  166 1   
   169  164  167 1   
   170  170  171 1   
   171  170  172 1   
@<TRIPOS>SUBSTRUCTURE
     1 MOL         1 TEMP              0 ****  ****    0 ROOT
