@<TRIPOS>MOLECULE
MOL
  189   185     1     0     0
SMALL
resp


@<TRIPOS>ATOM
      1 C1          0.2440   -4.7330    5.6420 c3        1 MOL     -0.422608
      2 C2          0.6990   -4.1110    4.3080 c         1 MOL      0.789377
      3 O1          0.7750   -2.9080    4.2220 o         1 MOL     -0.611539
      4 H1          1.0830   -4.7480    6.3390 hc        1 MOL      0.109817
      5 H2         -0.5670   -4.1390    6.0630 hc        1 MOL      0.109817
      6 H3         -0.1020   -5.7530    5.4700 hc        1 MOL      0.109817
      7 N1          1.1660   -4.8620    3.2580 n         1 MOL     -0.665133
      8 C3          1.9010   -4.3800    2.0360 c3        1 MOL      0.146668
      9 C4          1.7150   -5.2980    0.8730 c         1 MOL      0.414371
     10 O2          1.6540   -6.5460    1.0410 o         1 MOL     -0.587331
     11 C5          3.3760   -4.1570    2.4840 c3        1 MOL     -0.207154
     12 C6          4.2260   -3.2850    1.5760 c         1 MOL      0.698295
     13 O3          5.4530   -3.2170    1.7210 o         1 MOL     -0.694710
     14 O4          3.6900   -2.6920    0.6040 o         1 MOL     -0.694710
     15 H4          1.2640   -5.8660    3.2760 hn        1 MOL      0.315919
     16 H5          1.7080   -3.3390    1.7440 h1        1 MOL      0.163170
     17 H6          3.9000   -5.0860    2.7020 hc        1 MOL      0.046334
     18 H7          3.3940   -3.6070    3.4300 hc        1 MOL      0.046334
     19 N2          1.3470   -4.7280   -0.2510 n         1 MOL     -0.072220
     20 C7          1.1380   -5.3740   -1.5520 c3        1 MOL     -0.275777
     21 C8          2.3700   -5.2530   -2.4770 c         1 MOL      0.642098
     22 O5          2.7060   -6.1590   -3.2770 o         1 MOL     -0.596035
     23 C9         -0.1320   -4.6790   -2.2250 c3        1 MOL      0.409591
     24 C10        -1.3790   -4.6660   -1.2980 c3        1 MOL     -0.037716
     25 C11        -0.4420   -5.4150   -3.5990 c3        1 MOL     -0.460818
     26 C12        -2.3920   -3.5590   -1.6990 c3        1 MOL      0.084110
     27 H8          1.3300   -3.7220   -0.2780 hn        1 MOL      0.222738
     28 H9          0.8930   -6.4260   -1.4070 h1        1 MOL      0.097085
     29 H10         0.0980   -3.6500   -2.5010 hc        1 MOL     -0.029624
     30 H11        -1.1110   -4.3930   -0.2790 hc        1 MOL     -0.027851
     31 H12        -1.8790   -5.6420   -1.3610 hc        1 MOL     -0.027851
     32 H13        -1.0720   -4.8400   -4.2680 hc        1 MOL      0.097173
     33 H14         0.4620   -5.5030   -4.2030 hc        1 MOL      0.097173
     34 H15        -0.8660   -6.3970   -3.3930 hc        1 MOL      0.097173
     35 H16        -1.8890   -2.6510   -2.0410 hc        1 MOL     -0.035152
     36 H17        -2.9640   -3.8320   -2.5830 hc        1 MOL     -0.035152
     37 H18        -3.1070   -3.2890   -0.9300 hc        1 MOL     -0.035152
     38 N3          3.1090   -4.1670   -2.3230 n         1 MOL     -0.363928
     39 C13         3.9250   -3.5260   -3.3470 c3        1 MOL      0.062730
     40 C14         5.2960   -2.9430   -2.9430 c         1 MOL      0.357907
     41 O6          6.1200   -2.6820   -3.8440 o         1 MOL     -0.530983
     42 C15         3.0210   -2.4910   -3.9920 c3        1 MOL     -0.282004
     43 C16         2.3590   -1.4310   -3.0460 c         1 MOL      0.832693
     44 O7          2.8330   -1.0740   -2.0170 o         1 MOL     -0.750495
     45 O8          1.2780   -0.8690   -3.4370 o         1 MOL     -0.750495
     46 H19         3.0540   -3.5490   -1.5380 hn        1 MOL      0.085355
     47 H20         4.2420   -4.3430   -3.9990 h1        1 MOL      0.084818
     48 H21         2.2230   -2.9820   -4.5350 hc        1 MOL      0.074027
     49 H22         3.5740   -1.9250   -4.7400 hc        1 MOL      0.074027
     50 N4          5.5030   -2.7180   -1.6580 n         1 MOL     -0.180479
     51 C17         6.7280   -2.2220   -1.0130 c3        1 MOL      0.062852
     52 C18         7.2190   -0.8650   -1.5290 c         1 MOL      0.352611
     53 O9          8.3870   -0.6720   -1.8650 o         1 MOL     -0.588956
     54 H23         4.6970   -2.9510   -1.0910 hn        1 MOL      0.187147
     55 H24         7.5270   -2.9650   -1.0420 h1        1 MOL      0.040303
     56 H25         6.4950   -2.0200    0.0310 h1        1 MOL      0.040303
     57 N5          6.3280    0.0880   -1.6310 n         1 MOL     -0.047142
     58 C19         6.6710    1.5340   -1.9750 c3        1 MOL     -0.069230
     59 C20         7.0770    2.4800   -0.8490 c         1 MOL      0.424720
     60 O10         7.3980    3.6470   -1.1430 o         1 MOL     -0.531097
     61 C21         5.4450    2.0480   -2.7350 c3        1 MOL     -0.333947
     62 C22         4.1160    2.0340   -1.9860 c         1 MOL      0.850139
     63 O11         4.0440    1.6140   -0.7880 o         1 MOL     -0.709223
     64 O12         3.1030    2.4280   -2.6450 o         1 MOL     -0.709223
     65 H26         5.4100   -0.1450   -1.2920 hn        1 MOL      0.094999
     66 H27         7.5160    1.4950   -2.6560 h1        1 MOL      0.136251
     67 H28         5.3410    1.4510   -3.6360 hc        1 MOL      0.089045
     68 H29         5.6970    3.0620   -3.0330 hc        1 MOL      0.089045
     69 N6          7.0350    2.0460    0.3810 n         1 MOL     -0.247258
     70 C23         7.1740    2.8100    1.5370 c3        1 MOL     -0.148026
     71 C24         5.9990    3.7900    1.8050 c         1 MOL      0.511436
     72 O13         6.3100    4.7360    2.4880 o         1 MOL     -0.576300
     73 H30         6.6940    1.1150    0.5560 hn        1 MOL      0.203505
     74 H31         8.1310    3.3250    1.4430 h1        1 MOL      0.093949
     75 H32         7.2730    2.2070    2.4380 h1        1 MOL      0.093949
     76 N7          4.7920    3.4760    1.3410 n         1 MOL     -0.360940
     77 C25         3.5510    4.1370    1.5660 c3        1 MOL      0.098710
     78 C26         2.4140    3.1310    1.9040 c         1 MOL      0.394701
     79 O14         2.6570    1.9240    1.7610 o         1 MOL     -0.601101
     80 C27         3.2170    5.0410    0.3410 c3        1 MOL     -0.130657
     81 C28         4.3760    6.0180   -0.1120 c3        1 MOL     -0.088824
     82 C29         3.9290    7.0880   -1.1070 c         1 MOL      0.667833
     83 N8          4.1730    6.9380   -2.3890 n         1 MOL     -0.793895
     84 O15         3.5020    8.0960   -0.7040 o         1 MOL     -0.588187
     85 H33         4.7660    2.6120    0.8170 hn        1 MOL      0.335929
     86 H34         3.4560    4.7560    2.4560 h1        1 MOL      0.037623
     87 H35         2.4130    5.6500    0.7530 hc        1 MOL      0.037277
     88 H36         2.9640    4.4870   -0.5620 hc        1 MOL      0.037277
     89 H37         5.1950    5.4180   -0.5250 hc        1 MOL      0.049933
     90 H38         4.7150    6.5330    0.7870 hc        1 MOL      0.049933
     91 H39         4.5250    6.0730   -2.7660 hn        1 MOL      0.353485
     92 H40         3.6980    7.5950   -2.9890 hn        1 MOL      0.353485
     93 N9          1.2450    3.5800    2.2120 n         1 MOL     -0.208811
     94 C30        -0.0490    2.9240    2.4850 c3        1 MOL     -0.036316
     95 C31        -1.0860    3.1710    1.4040 c         1 MOL      0.231899
     96 O16        -1.6490    4.2730    1.2840 o         1 MOL     -0.566343
     97 C32        -0.6430    3.3070    3.8320 c3        1 MOL      0.501478
     98 C33        -1.8790    2.5290    4.2790 c3        1 MOL     -0.428705
     99 C34         0.4600    3.2160    4.8940 c3        1 MOL     -0.428705
    100 H41         1.2040    4.5850    2.3080 hn        1 MOL      0.246570
    101 H42         0.0180    1.8410    2.5820 h1        1 MOL      0.083632
    102 H43        -0.8490    4.3780    3.8960 hc        1 MOL     -0.075349
    103 H44        -2.7240    2.8530    3.6790 hc        1 MOL      0.083498
    104 H45        -1.8070    1.4530    4.1350 hc        1 MOL      0.083498
    105 H46        -2.0360    2.6010    5.3530 hc        1 MOL      0.083498
    106 H47         1.1460    3.9950    4.5840 hc        1 MOL      0.083498
    107 H48         0.0790    3.5020    5.8720 hc        1 MOL      0.083498
    108 H49         0.8770    2.2010    4.8650 hc        1 MOL      0.083498
    109 N10        -1.4450    2.2010    0.6220 n         1 MOL     -0.062443
    110 C35        -2.5900    2.3110   -0.2280 c3        1 MOL     -0.010315
    111 C36        -3.8740    2.2720    0.6030 c         1 MOL      0.280896
    112 O17        -3.8960    1.7680    1.6700 o         1 MOL     -0.275806
    113 C37        -2.5430    1.1880   -1.2380 c3        1 MOL     -0.446842
    114 C38        -3.6470    1.3690   -2.3260 c         1 MOL      0.789296
    115 N11        -3.5570    2.3570   -3.1750 n         1 MOL     -0.822156
    116 O18        -4.6150    0.6390   -2.3260 o         1 MOL     -0.572592
    117 H50        -0.9570    1.3270    0.7280 hn        1 MOL      0.289554
    118 H51        -2.5860    3.3280   -0.6210 h1        1 MOL      0.105542
    119 H52        -2.5650    0.2480   -0.6760 hc        1 MOL      0.158225
    120 H53        -1.5840    1.2430   -1.7630 hc        1 MOL      0.158225
    121 H54        -2.7320    2.9290   -3.2790 hn        1 MOL      0.356534
    122 H55        -4.2220    2.4300   -3.9320 hn        1 MOL      0.356534
    123 N12        -5.0690    2.5680    0.0260 n         1 MOL     -0.103803
    124 C39        -6.3720    2.3790    0.6440 c3        1 MOL     -0.018292
    125 C40        -6.7250    0.8830    0.9190 c         1 MOL      0.417778
    126 O19        -7.1550    0.5970    2.0380 o         1 MOL     -0.547821
    127 C41        -7.5380    2.9910   -0.1580 c3        1 MOL     -0.275682
    128 C42        -7.4630    2.8450   -1.6570 ca        1 MOL      0.194277
    129 C43        -6.5060    3.6480   -2.3770 ca        1 MOL     -0.297808
    130 C44        -8.3350    2.1060   -2.4680 ca        1 MOL     -0.297808
    131 C45        -6.3120    3.5110   -3.7390 ca        1 MOL     -0.037655
    132 C46        -8.2360    1.9670   -3.8910 ca        1 MOL     -0.037655
    133 C47        -7.0880    2.6320   -4.4910 ca        1 MOL      0.059152
    134 O20        -6.8890    2.5410   -5.8510 oh        1 MOL     -0.418936
    135 H56        -5.0500    2.8380   -0.9570 hn        1 MOL      0.017333
    136 H57        -6.4190    2.9120    1.5980 h1        1 MOL      0.082631
    137 H58        -7.5840    4.0680   -0.0250 hc        1 MOL      0.110545
    138 H59        -8.5020    2.5570    0.1130 hc        1 MOL      0.110545
    139 H60        -6.0030    4.4790   -1.8960 ha        1 MOL      0.137795
    140 H61        -9.0310    1.4800   -1.9220 ha        1 MOL      0.137795
    141 H62        -5.6670    4.2530   -4.1870 ha        1 MOL      0.103915
    142 H63        -8.8550    1.3080   -4.4730 ha        1 MOL      0.103915
    143 H64        -6.0670    2.9390   -6.1360 ho        1 MOL      0.319002
    144 N13        -6.4760   -0.0170    0.0040 n         1 MOL     -0.300314
    145 C48        -6.5150   -1.4840    0.2270 c3        1 MOL     -0.132939
    146 C49        -5.4720   -2.0450    1.2920 c         1 MOL      0.451131
    147 O21        -5.6990   -3.1390    1.7820 o         1 MOL     -0.517218
    148 C50        -6.2420   -2.2240   -1.0980 c3        1 MOL     -0.051935
    149 C51        -7.2170   -1.8710   -2.2160 c3        1 MOL     -0.066087
    150 C52        -8.7240   -1.8330   -1.6630 c         1 MOL      0.618536
    151 O22        -9.5030   -0.9270   -2.1430 o         1 MOL     -0.674765
    152 O23        -9.1350   -2.6800   -0.8970 o         1 MOL     -0.674765
    153 H65        -6.1830    0.2970   -0.9070 hn        1 MOL      0.492983
    154 H66        -7.5140   -1.7840    0.5270 h1        1 MOL      0.157304
    155 H67        -6.4010   -3.2570   -0.7640 hc        1 MOL      0.034595
    156 H68        -5.1940   -2.0880   -1.3630 hc        1 MOL      0.034595
    157 H69        -7.2410   -2.6780   -2.9440 hc        1 MOL     -0.012941
    158 H70        -7.0250   -0.8940   -2.6620 hc        1 MOL     -0.012941
    159 N14        -4.3900   -1.2610    1.6620 n         1 MOL     -0.170382
    160 C53        -3.4880   -1.6070    2.8470 c3        1 MOL     -0.061058
    161 C54        -3.8960   -0.9000    4.1740 c         1 MOL      0.508477
    162 O24        -3.6490   -1.4430    5.1790 o         1 MOL     -0.563001
    163 C55        -2.0810   -1.2630    2.4620 c3        1 MOL      0.053137
    164 C56        -1.4860   -2.0250    1.2970 c3        1 MOL      0.001606
    165 C57        -0.1870   -1.4560    0.8550 c         1 MOL      0.778330
    166 O25         0.6720   -2.1030    0.2760 o         1 MOL     -0.768370
    167 O26         0.0520   -0.2560    1.0080 o         1 MOL     -0.768370
    168 H71        -4.4190   -0.2990    1.3460 hn        1 MOL     -0.012109
    169 H72        -3.5760   -2.6550    3.1080 h1        1 MOL      0.091021
    170 H73        -1.5010   -1.5910    3.3260 hc        1 MOL     -0.009185
    171 H74        -1.9890   -0.1850    2.3050 hc        1 MOL     -0.009185
    172 H75        -2.2200   -1.9610    0.5010 hc        1 MOL     -0.013662
    173 H76        -1.2240   -3.0580    1.5160 hc        1 MOL     -0.013662
    174 N15        -4.6280    0.2160    4.2010 n         1 MOL     -0.109443
    175 C58        -5.1060    0.9870    5.3540 c3        1 MOL     -0.130478
    176 H77        -6.1720    0.8100    5.4920 h1        1 MOL      0.056417
    177 H78        -4.5670    0.6750    6.2490 h1        1 MOL      0.056417
    178 H79        -4.9340    2.0490    5.1780 h1        1 MOL      0.056417
    179 H80        -4.8310    0.7260    3.3480 hn        1 MOL      0.128093
    180 Ca1         2.5740   -0.2210    0.3390 Ca        1 MOL      1.847737
    181 O27         2.2920   -1.1320    2.8520 oh        1 MOL     -0.962361
    182 H81         2.8790   -0.8230    3.5400 ho        1 MOL      0.442125
    183 H82         1.6630   -1.7050    3.3120 ho        1 MOL      0.442125
    184 O28         5.1360   -0.3470    1.4070 oh        1 MOL     -0.962361
    185 H83         5.0070   -1.2850    1.3360 ho        1 MOL      0.442125
    186 H84         5.8780   -0.2440    2.0120 ho        1 MOL      0.442125
    187 O29         1.0450    1.1880   -1.3400 oh        1 MOL     -0.962361
    188 H85         1.5790    1.8030   -1.8370 ho        1 MOL      0.442125
    189 H86         0.9560    0.4340   -1.9230 ho        1 MOL      0.442125
@<TRIPOS>BOND
     1    1    2 1   
     2    1    4 1   
     3    1    5 1   
     4    1    6 1   
     5    2    3 2   
     6    2    7 1   
     7    7    8 1   
     8    7   15 1   
     9    8    9 1   
    10    8   11 1   
    11    8   16 1   
    12    9   10 2   
    13    9   19 1   
    14   11   12 1   
    15   11   17 1   
    16   11   18 1   
    17   12   13 1   
    18   12   14 1   
    19   19   20 1   
    20   19   27 1   
    21   20   21 1   
    22   20   23 1   
    23   20   28 1   
    24   21   22 2   
    25   21   38 1   
    26   23   24 1   
    27   23   25 1   
    28   23   29 1   
    29   24   26 1   
    30   24   30 1   
    31   24   31 1   
    32   25   32 1   
    33   25   33 1   
    34   25   34 1   
    35   26   35 1   
    36   26   36 1   
    37   26   37 1   
    38   38   39 1   
    39   38   46 1   
    40   39   40 1   
    41   39   42 1   
    42   39   47 1   
    43   40   41 2   
    44   40   50 1   
    45   42   43 1   
    46   42   48 1   
    47   42   49 1   
    48   43   44 1   
    49   43   45 1   
    50   50   51 1   
    51   50   54 1   
    52   51   52 1   
    53   51   55 1   
    54   51   56 1   
    55   52   53 2   
    56   52   57 1   
    57   57   58 1   
    58   57   65 1   
    59   58   59 1   
    60   58   61 1   
    61   58   66 1   
    62   59   60 2   
    63   59   69 1   
    64   61   62 1   
    65   61   67 1   
    66   61   68 1   
    67   62   63 1   
    68   62   64 1   
    69   69   70 1   
    70   69   73 1   
    71   70   71 1   
    72   70   74 1   
    73   70   75 1   
    74   71   72 2   
    75   71   76 1   
    76   76   77 1   
    77   76   85 1   
    78   77   78 1   
    79   77   80 1   
    80   77   86 1   
    81   78   79 2   
    82   78   93 1   
    83   80   81 1   
    84   80   87 1   
    85   80   88 1   
    86   81   82 1   
    87   81   89 1   
    88   81   90 1   
    89   82   83 1   
    90   82   84 2   
    91   83   91 1   
    92   83   92 1   
    93   93   94 1   
    94   93  100 1   
    95   94   95 1   
    96   94   97 1   
    97   94  101 1   
    98   95   96 2   
    99   95  109 1   
   100   97   98 1   
   101   97   99 1   
   102   97  102 1   
   103   98  103 1   
   104   98  104 1   
   105   98  105 1   
   106   99  106 1   
   107   99  107 1   
   108   99  108 1   
   109  109  110 1   
   110  109  117 1   
   111  110  111 1   
   112  110  113 1   
   113  110  118 1   
   114  111  112 2   
   115  111  123 1   
   116  113  114 1   
   117  113  119 1   
   118  113  120 1   
   119  114  115 1   
   120  114  116 2   
   121  115  121 1   
   122  115  122 1   
   123  123  124 1   
   124  123  135 1   
   125  124  125 1   
   126  124  127 1   
   127  124  136 1   
   128  125  126 2   
   129  125  144 1   
   130  127  128 1   
   131  127  137 1   
   132  127  138 1   
   133  128  129 ar  
   134  128  130 ar  
   135  129  131 ar  
   136  129  139 1   
   137  130  132 ar  
   138  130  140 1   
   139  131  133 ar  
   140  131  141 1   
   141  132  133 ar  
   142  132  142 1   
   143  133  134 1   
   144  134  143 1   
   145  144  145 1   
   146  144  153 1   
   147  145  146 1   
   148  145  148 1   
   149  145  154 1   
   150  146  147 2   
   151  146  159 1   
   152  148  149 1   
   153  148  155 1   
   154  148  156 1   
   155  149  150 1   
   156  149  157 1   
   157  149  158 1   
   158  150  151 1   
   159  150  152 1   
   160  159  160 1   
   161  159  168 1   
   162  160  161 1   
   163  160  163 1   
   164  160  169 1   
   165  161  162 2   
   166  161  174 1   
   167  163  164 1   
   168  163  170 1   
   169  163  171 1   
   170  164  165 1   
   171  164  172 1   
   172  164  173 1   
   173  165  166 1   
   174  165  167 1   
   175  174  175 1   
   176  174  179 1   
   177  175  176 1   
   178  175  177 1   
   179  175  178 1   
   180  181  182 1   
   181  181  183 1   
   182  184  185 1   
   183  184  186 1   
   184  187  188 1   
   185  187  189 1   
@<TRIPOS>SUBSTRUCTURE
     1 MOL         1 TEMP              0 ****  ****    0 ROOT
