@<TRIPOS>MOLECULE
MOL
  175   173     1     0     0
SMALL
resp


@<TRIPOS>ATOM
      1 C1          1.3550    4.3210    5.3350 c3        1 MOL     -0.336753
      2 C2          0.5440    4.1090    3.9910 c         1 MOL      0.681712
      3 O1          1.2020    4.2720    3.0010 o         1 MOL     -0.539741
      4 H1          0.7460    4.8860    6.0410 hc        1 MOL      0.080599
      5 H2          1.6040    3.3520    5.7660 hc        1 MOL      0.080599
      6 H3          2.2710    4.8730    5.1250 hc        1 MOL      0.080599
      7 N1         -0.7620    3.9240    3.9310 n         1 MOL     -0.627497
      8 C3         -1.4810    3.6000    2.6230 c3        1 MOL      0.063628
      9 C4         -1.5990    4.8140    1.6570 c         1 MOL      0.782782
     10 O2         -1.8160    5.8690    2.1250 o         1 MOL     -0.569993
     11 C5         -2.9050    3.2330    2.9690 c3        1 MOL     -0.343477
     12 C6         -3.6790    2.6480    1.7670 c         1 MOL      0.676385
     13 O3         -4.9080    2.5120    1.9260 o         1 MOL     -0.656010
     14 O4         -3.1110    2.1770    0.7550 o         1 MOL     -0.656010
     15 H4         -1.1900    3.9410    4.8400 hn        1 MOL      0.321106
     16 H5         -1.1160    2.7200    2.1020 h1        1 MOL      0.099408
     17 H6         -3.4200    4.1170    3.3270 hc        1 MOL      0.092849
     18 H7         -2.9980    2.4870    3.7580 hc        1 MOL      0.092849
     19 N2         -1.5240    4.4420    0.3500 n         1 MOL     -0.751275
     20 C7         -1.6490    5.4610   -0.7080 c3        1 MOL      0.378915
     21 C8         -2.6630    5.0460   -1.8250 c         1 MOL      0.509698
     22 O5         -2.5920    5.6540   -2.9210 o         1 MOL     -0.574234
     23 C9         -0.2640    5.8490   -1.2680 c3        1 MOL     -0.276616
     24 H8         -1.2360    3.5240    0.0580 hn        1 MOL      0.414069
     25 H9         -2.1180    6.3330   -0.2590 h1        1 MOL     -0.024274
     26 H10        -0.3860    6.4850   -2.1450 hc        1 MOL      0.063451
     27 H11         0.1660    6.3820   -0.4310 hc        1 MOL      0.063451
     28 H12         0.3140    4.9910   -1.6330 hc        1 MOL      0.063451
     29 N3         -3.5160    4.0190   -1.7000 n         1 MOL     -0.536209
     30 C10        -4.3820    3.5050   -2.7870 c3        1 MOL      0.253547
     31 C11        -5.7880    2.9860   -2.4550 c         1 MOL      0.344724
     32 O6         -6.7190    3.1780   -3.2220 o         1 MOL     -0.546673
     33 C12        -3.6720    2.3870   -3.6090 c3        1 MOL     -0.284028
     34 C13        -3.1530    1.1990   -2.8020 c         1 MOL      0.757419
     35 O7         -3.7870    0.7220   -1.7930 o         1 MOL     -0.700535
     36 O8         -1.9460    0.8080   -3.0070 o         1 MOL     -0.700535
     37 H13        -3.4010    3.3820   -0.9210 hn        1 MOL      0.294509
     38 H14        -4.5950    4.3630   -3.4200 h1        1 MOL      0.044735
     39 H15        -2.8420    2.8480   -4.1400 hc        1 MOL      0.069795
     40 H16        -4.3400    1.9700   -4.3580 hc        1 MOL      0.069795
     41 N4         -5.9530    2.3960   -1.2790 n         1 MOL     -0.042357
     42 C14        -7.1690    1.6640   -0.8400 c3        1 MOL     -0.517552
     43 C15        -7.3050    0.1890   -1.3220 c         1 MOL      0.668853
     44 O9         -8.4070   -0.2690   -1.3110 o         1 MOL     -0.627902
     45 H17        -5.0970    2.1570   -0.7980 hn        1 MOL     -0.000516
     46 H18        -8.0080    2.1290   -1.3750 h1        1 MOL      0.200003
     47 H19        -7.1590    1.7730    0.2460 h1        1 MOL      0.200003
     48 N5         -6.2670   -0.5060   -1.7400 n         1 MOL     -0.288381
     49 C16        -6.3870   -1.9290   -2.2400 c3        1 MOL     -0.190016
     50 C17        -6.5140   -3.0130   -1.1670 c         1 MOL      0.513401
     51 O10        -6.5200   -4.1660   -1.4780 o         1 MOL     -0.533181
     52 C18        -5.2030   -2.2270   -3.1440 c3        1 MOL      0.056137
     53 C19        -3.9000   -2.2620   -2.3710 c         1 MOL      0.366117
     54 N6         -2.8190   -2.4840   -3.0840 n         1 MOL     -0.638041
     55 O11        -3.7180   -2.0450   -1.1860 o         1 MOL     -0.238970
     56 H20        -5.3880   -0.0120   -1.7960 hn        1 MOL      0.253474
     57 H21        -7.2740   -2.0800   -2.8540 h1        1 MOL      0.123108
     58 H22        -5.0840   -1.3760   -3.8180 hc        1 MOL      0.016515
     59 H23        -5.3850   -3.0480   -3.8420 hc        1 MOL      0.016515
     60 H24        -2.8350   -2.6900   -4.0770 hn        1 MOL      0.325325
     61 H25        -1.9310   -2.3880   -2.6250 hn        1 MOL      0.325325
     62 N7         -6.4440   -2.6110    0.1030 n         1 MOL     -0.255983
     63 C20        -6.5710   -3.5480    1.2810 c3        1 MOL     -0.233147
     64 C21        -5.2910   -4.3030    1.6610 c         1 MOL      0.589903
     65 O12        -5.5190   -5.3310    2.3150 o         1 MOL     -0.605418
     66 H26        -6.2930   -1.6500    0.3670 hn        1 MOL      0.225816
     67 H27        -7.2910   -4.2750    0.9140 h1        1 MOL      0.108019
     68 H28        -7.0160   -3.0360    2.1450 h1        1 MOL      0.108019
     69 N8         -4.1510   -3.7920    1.3250 n         1 MOL     -0.143908
     70 C22        -2.8240   -4.2790    1.7000 c3        1 MOL     -0.350449
     71 C23        -1.7670   -3.2000    1.8600 c         1 MOL      0.712498
     72 O13        -1.8540   -2.1900    1.2010 o         1 MOL     -0.667038
     73 C24        -2.3350   -5.3020    0.6580 c3        1 MOL      0.546591
     74 C25        -2.9600   -6.7310    0.7740 c3        1 MOL     -0.572055
     75 O14        -2.6280   -4.8340   -0.6170 oh        1 MOL     -0.588931
     76 H29        -4.1950   -3.0700    0.6210 hn        1 MOL      0.105675
     77 H30        -2.8950   -4.6670    2.7150 h1        1 MOL      0.108950
     78 H31        -1.2490   -5.3520    0.7440 h1        1 MOL     -0.042364
     79 H32        -2.2680   -3.9640   -0.8190 ho        1 MOL      0.335702
     80 H33        -4.0380   -6.6640    0.6720 hc        1 MOL      0.149640
     81 H34        -2.5770   -7.3610   -0.0330 hc        1 MOL      0.149640
     82 H35        -2.7040   -7.1750    1.7310 hc        1 MOL      0.149640
     83 N9         -0.6980   -3.4300    2.6630 n         1 MOL     -0.591429
     84 C26         0.5260   -2.6770    2.5490 c3        1 MOL      0.150933
     85 C27         1.1950   -3.0290    1.2110 c         1 MOL      0.427676
     86 O15         1.4660   -4.1940    0.9430 o         1 MOL     -0.582595
     87 C28         1.5720   -2.9540    3.6650 c3        1 MOL      0.048340
     88 C29         1.0940   -2.6530    5.1370 c3        1 MOL     -0.128793
     89 C30         2.9350   -2.2990    3.4460 c3        1 MOL     -0.159583
     90 C31         0.6740   -1.1720    5.4670 c3        1 MOL     -0.160766
     91 H36        -0.7650   -4.2520    3.2470 hn        1 MOL      0.313826
     92 H37         0.2700   -1.6210    2.5770 h1        1 MOL      0.078796
     93 H38         1.7070   -4.0330    3.6030 hc        1 MOL     -0.002682
     94 H39         1.8740   -2.8630    5.8700 hc        1 MOL      0.051795
     95 H40         0.2300   -3.2970    5.2990 hc        1 MOL      0.051795
     96 H41         3.5050   -2.5590    4.3300 hc        1 MOL      0.038097
     97 H42         3.5030   -2.7750    2.6430 hc        1 MOL      0.038097
     98 H43         2.8640   -1.2140    3.4030 hc        1 MOL      0.038097
     99 H44         1.5160   -0.5050    5.2880 hc        1 MOL      0.035897
    100 H45        -0.0870   -0.6780    4.8590 hc        1 MOL      0.035897
    101 H46         0.3480   -1.1900    6.5080 hc        1 MOL      0.035897
    102 N10         1.5240   -2.0680    0.3690 n         1 MOL     -0.045586
    103 C32         2.4270   -2.2290   -0.7900 c3        1 MOL      0.047339
    104 C33         3.8280   -1.7000   -0.4860 c         1 MOL      0.265279
    105 O16         4.1500   -1.0790    0.5080 o         1 MOL     -0.174770
    106 C34         1.8510   -1.5270   -2.0000 c3        1 MOL     -0.266987
    107 C35         0.3860   -1.9290   -2.2420 c         1 MOL      0.760584
    108 O17         0.1080   -2.6070   -3.2300 o         1 MOL     -0.683388
    109 O18        -0.5250   -1.5570   -1.4610 o         1 MOL     -0.683388
    110 H47         1.1610   -1.1480    0.5800 hn        1 MOL      0.142076
    111 H48         2.3900   -3.2920   -1.0340 h1        1 MOL      0.065475
    112 H49         2.4120   -1.6540   -2.9210 hc        1 MOL      0.063447
    113 H50         1.8240   -0.4620   -1.7680 hc        1 MOL      0.063447
    114 N11         4.7150   -1.9340   -1.4990 n         1 MOL     -0.610814
    115 C36         6.1230   -1.5970   -1.3530 c3        1 MOL      0.312133
    116 C37         6.4640   -0.0860   -1.3370 c         1 MOL      0.360229
    117 O19         7.2880    0.3710   -0.5520 o         1 MOL     -0.507497
    118 C38         6.8620   -2.3630   -2.4390 c3        1 MOL     -0.164410
    119 C39         8.3500   -2.3590   -2.2460 ca        1 MOL      0.061149
    120 C40         9.1940   -1.7430   -3.1950 ca        1 MOL     -0.122512
    121 C41         8.8120   -2.8630   -1.0510 ca        1 MOL     -0.122512
    122 C42        10.5630   -1.6750   -2.9440 ca        1 MOL     -0.168909
    123 C43        10.2510   -2.8470   -0.8280 ca        1 MOL     -0.168909
    124 C44        11.0530   -2.2290   -1.7420 ca        1 MOL     -0.043433
    125 H51         4.3040   -2.5150   -2.2160 hn        1 MOL      0.348841
    126 H52         6.4750   -1.8950   -0.3580 h1        1 MOL      0.079162
    127 H53         6.4960   -1.9280   -3.3720 hc        1 MOL      0.054295
    128 H54         6.5820   -3.4160   -2.5060 hc        1 MOL      0.054295
    129 H55         8.7850   -1.2710   -4.0730 ha        1 MOL      0.107677
    130 H56         8.1210   -3.3650   -0.3800 ha        1 MOL      0.107677
    131 H57        11.2490   -1.0960   -3.5590 ha        1 MOL      0.124533
    132 H58        10.7260   -3.3340    0.0060 ha        1 MOL      0.124533
    133 H59        12.1230   -2.1550   -1.6210 ha        1 MOL      0.078540
    134 N12         5.8370    0.7940   -2.1190 n         1 MOL     -0.114842
    135 C45         5.9790    2.2770   -1.9430 c3        1 MOL     -0.044103
    136 C46         5.4920    2.8220   -0.5660 c         1 MOL      0.306585
    137 O20         5.9230    3.8470   -0.1040 o         1 MOL     -0.493113
    138 C47         5.3320    2.8820   -3.1630 c3        1 MOL      0.046280
    139 C48         5.2640    1.7120   -4.0960 c3        1 MOL     -0.066312
    140 C49         4.9980    0.4940   -3.2180 c3        1 MOL     -0.025388
    141 H60         7.0110    2.5790   -2.1060 h1        1 MOL      0.090051
    142 H61         4.3560    3.2230   -2.8050 hc        1 MOL      0.017907
    143 H62         5.8800    3.7250   -3.5910 hc        1 MOL      0.017907
    144 H63         4.4250    1.8400   -4.7800 hc        1 MOL      0.028192
    145 H64         6.1880    1.6810   -4.6720 hc        1 MOL      0.028192
    146 H65         3.9870    0.4440   -2.8060 h1        1 MOL      0.052496
    147 H66         5.2020   -0.3740   -3.8390 h1        1 MOL      0.052496
    148 N13         4.7890    1.9520    0.1710 n         1 MOL      0.045436
    149 C50         4.2150    2.1650    1.4970 c3        1 MOL     -0.107583
    150 C51         5.1840    1.6010    2.4970 c         1 MOL      0.474375
    151 O21         5.5200    2.2500    3.5100 o         1 MOL     -0.570786
    152 C52         2.7970    1.5890    1.6720 c3        1 MOL      0.024486
    153 C53         1.9560    2.0510    0.4440 c3        1 MOL      0.009267
    154 C54         0.6070    1.4580    0.4530 c         1 MOL      0.563152
    155 O22        -0.2690    1.9710   -0.2780 o         1 MOL     -0.707326
    156 O23         0.3300    0.4760    1.1040 o         1 MOL     -0.707326
    157 H67         4.5520    1.0220   -0.1730 hn        1 MOL      0.113028
    158 H68         4.1540    3.2410    1.7080 h1        1 MOL      0.089379
    159 H69         2.3380    1.9520    2.5880 hc        1 MOL      0.012120
    160 H70         2.8120    0.5090    1.5390 hc        1 MOL      0.012120
    161 H71         2.4320    1.7260   -0.4800 hc        1 MOL      0.013505
    162 H72         1.8430    3.1330    0.4480 hc        1 MOL      0.013505
    163 N14         5.7120    0.3810    2.2550 n         1 MOL     -0.054449
    164 C55         6.8020   -0.2710    3.0460 c3        1 MOL     -0.288846
    165 H73         7.2350   -1.0850    2.4650 h1        1 MOL      0.105359
    166 H74         7.5750    0.4630    3.2740 h1        1 MOL      0.105359
    167 H75         6.3910   -0.6670    3.9750 h1        1 MOL      0.105359
    168 H76         5.3560   -0.0610    1.4120 hn        1 MOL     -0.072342
    169 Ca1        -2.1160    0.0510   -0.0180 Ca        1 MOL      1.688741
    170 O24        -4.9430   -0.3320    1.1770 oh        1 MOL     -0.785549
    171 H77        -5.0420   -0.5450    2.1010 ho        1 MOL      0.389113
    172 H78        -4.9590    0.6210    1.1440 ho        1 MOL      0.389113
    173 O25        -1.5060    0.3790    2.9680 oh        1 MOL     -0.785549
    174 H79        -0.6270    0.3000    2.6040 ho        1 MOL      0.389113
    175 H80        -1.3740    0.8040    3.8230 ho        1 MOL      0.389113
@<TRIPOS>BOND
     1    1    2 1   
     2    1    4 1   
     3    1    5 1   
     4    1    6 1   
     5    2    3 2   
     6    2    7 1   
     7    7    8 1   
     8    7   15 1   
     9    8    9 1   
    10    8   11 1   
    11    8   16 1   
    12    9   10 2   
    13    9   19 1   
    14   11   12 1   
    15   11   17 1   
    16   11   18 1   
    17   12   13 1   
    18   12   14 1   
    19   19   20 1   
    20   19   24 1   
    21   20   21 1   
    22   20   23 1   
    23   20   25 1   
    24   21   22 2   
    25   21   29 1   
    26   23   26 1   
    27   23   27 1   
    28   23   28 1   
    29   29   30 1   
    30   29   37 1   
    31   30   31 1   
    32   30   33 1   
    33   30   38 1   
    34   31   32 2   
    35   31   41 1   
    36   33   34 1   
    37   33   39 1   
    38   33   40 1   
    39   34   35 1   
    40   34   36 1   
    41   41   42 1   
    42   41   45 1   
    43   42   43 1   
    44   42   46 1   
    45   42   47 1   
    46   43   44 2   
    47   43   48 1   
    48   48   49 1   
    49   48   56 1   
    50   49   50 1   
    51   49   52 1   
    52   49   57 1   
    53   50   51 2   
    54   50   62 1   
    55   52   53 1   
    56   52   58 1   
    57   52   59 1   
    58   53   54 1   
    59   53   55 2   
    60   54   60 1   
    61   54   61 1   
    62   62   63 1   
    63   62   66 1   
    64   63   64 1   
    65   63   67 1   
    66   63   68 1   
    67   64   65 2   
    68   64   69 1   
    69   69   70 1   
    70   69   76 1   
    71   70   71 1   
    72   70   73 1   
    73   70   77 1   
    74   71   72 2   
    75   71   83 1   
    76   73   74 1   
    77   73   75 1   
    78   73   78 1   
    79   74   80 1   
    80   74   81 1   
    81   74   82 1   
    82   75   79 1   
    83   83   84 1   
    84   83   91 1   
    85   84   85 1   
    86   84   87 1   
    87   84   92 1   
    88   85   86 2   
    89   85  102 1   
    90   87   88 1   
    91   87   89 1   
    92   87   93 1   
    93   88   90 1   
    94   88   94 1   
    95   88   95 1   
    96   89   96 1   
    97   89   97 1   
    98   89   98 1   
    99   90   99 1   
   100   90  100 1   
   101   90  101 1   
   102  102  103 1   
   103  102  110 1   
   104  103  104 1   
   105  103  106 1   
   106  103  111 1   
   107  104  105 2   
   108  104  114 1   
   109  106  107 1   
   110  106  112 1   
   111  106  113 1   
   112  107  108 1   
   113  107  109 1   
   114  114  115 1   
   115  114  125 1   
   116  115  116 1   
   117  115  118 1   
   118  115  126 1   
   119  116  117 2   
   120  116  134 1   
   121  118  119 1   
   122  118  127 1   
   123  118  128 1   
   124  119  120 ar  
   125  119  121 ar  
   126  120  122 ar  
   127  120  129 1   
   128  121  123 ar  
   129  121  130 1   
   130  122  124 ar  
   131  122  131 1   
   132  123  124 ar  
   133  123  132 1   
   134  124  133 1   
   135  134  135 1   
   136  134  140 1   
   137  135  136 1   
   138  135  138 1   
   139  135  141 1   
   140  136  137 2   
   141  136  148 1   
   142  138  139 1   
   143  138  142 1   
   144  138  143 1   
   145  139  140 1   
   146  139  144 1   
   147  139  145 1   
   148  140  146 1   
   149  140  147 1   
   150  148  149 1   
   151  148  157 1   
   152  149  150 1   
   153  149  152 1   
   154  149  158 1   
   155  150  151 2   
   156  150  163 1   
   157  152  153 1   
   158  152  159 1   
   159  152  160 1   
   160  153  154 1   
   161  153  161 1   
   162  153  162 1   
   163  154  155 1   
   164  154  156 1   
   165  163  164 1   
   166  163  168 1   
   167  164  165 1   
   168  164  166 1   
   169  164  167 1   
   170  170  171 1   
   171  170  172 1   
   172  173  174 1   
   173  173  175 1   
@<TRIPOS>SUBSTRUCTURE
     1 MOL         1 TEMP              0 ****  ****    0 ROOT
