@<TRIPOS>MOLECULE
MOL
  189   185     1     0     0
SMALL
resp


@<TRIPOS>ATOM
      1 C1          0.7960   -1.7950    6.6790 c3        1 MOL     -0.583452
      2 C2          0.9530   -1.8460    5.1050 c         1 MOL      0.686584
      3 O1          0.6800   -0.8260    4.4540 o         1 MOL     -0.510690
      4 H1         -0.2250   -2.0630    6.9510 hc        1 MOL      0.154669
      5 H2          1.4900   -2.5000    7.1370 hc        1 MOL      0.154669
      6 H3          1.0140   -0.7880    7.0340 hc        1 MOL      0.154669
      7 N1          1.3730   -3.0420    4.5640 n         1 MOL     -0.589545
      8 C3          1.8670   -3.0630    3.1400 c3        1 MOL      0.304723
      9 C4          1.5820   -4.3780    2.3840 c         1 MOL      0.317851
     10 O2          1.5260   -5.4270    3.0050 o         1 MOL     -0.536341
     11 C5          3.3980   -2.8160    3.2580 c3        1 MOL     -0.265226
     12 C6          4.1210   -2.5200    1.9370 c         1 MOL      0.801753
     13 O3          5.3500   -2.4790    2.0190 o         1 MOL     -0.693034
     14 O4          3.5370   -2.2610    0.8590 o         1 MOL     -0.693034
     15 H4          1.6450   -3.8600    5.0890 hn        1 MOL      0.320851
     16 H5          1.4480   -2.2070    2.6050 h1        1 MOL     -0.024380
     17 H6          3.9400   -3.6940    3.6010 hc        1 MOL      0.037551
     18 H7          3.5960   -1.9560    3.8950 hc        1 MOL      0.037551
     19 N2          1.5400   -4.3750    1.0220 n         1 MOL     -0.013532
     20 C7          1.4850   -5.4580    0.0950 c3        1 MOL     -0.172510
     21 C8          2.4550   -5.3170   -1.1050 c         1 MOL      0.425243
     22 O5          2.4280   -6.2030   -1.9920 o         1 MOL     -0.565305
     23 C9          0.1150   -5.9160   -0.3670 c3        1 MOL      0.267004
     24 C10        -0.5260   -5.0540   -1.4670 c3        1 MOL      0.005470
     25 C11        -0.8570   -6.2060    0.7870 c3        1 MOL     -0.285272
     26 C12        -1.9180   -5.4600   -1.8980 c3        1 MOL     -0.337349
     27 H8          1.5280   -3.4500    0.6080 hn        1 MOL      0.149068
     28 H9          1.9180   -6.2690    0.6850 h1        1 MOL      0.086467
     29 H10         0.1880   -6.8760   -0.8750 hc        1 MOL     -0.047568
     30 H11         0.1260   -5.1000   -2.3300 hc        1 MOL      0.053857
     31 H12        -0.5810   -4.0130   -1.1600 hc        1 MOL      0.053857
     32 H13        -1.8420   -6.5760    0.5060 hc        1 MOL      0.056412
     33 H14        -0.3840   -6.8710    1.5170 hc        1 MOL      0.056412
     34 H15        -1.1560   -5.3420    1.3720 hc        1 MOL      0.056412
     35 H16        -2.6490   -5.3130   -1.1040 hc        1 MOL      0.078495
     36 H17        -2.2220   -4.9180   -2.7910 hc        1 MOL      0.078495
     37 H18        -1.9980   -6.5320   -2.1070 hc        1 MOL      0.078495
     38 N3          3.3860   -4.3890   -1.1270 n         1 MOL     -0.223579
     39 C13         4.3150   -4.1850   -2.2500 c3        1 MOL     -0.033157
     40 C14         5.7850   -3.7020   -1.9720 c         1 MOL      0.394635
     41 O6          6.6150   -3.8230   -2.8240 o         1 MOL     -0.510785
     42 C15         3.6180   -3.3710   -3.3750 c3        1 MOL     -0.052966
     43 C16         3.3140   -1.9400   -3.0250 c         1 MOL      0.687787
     44 O7          3.7680   -1.4190   -1.9840 o         1 MOL     -0.704109
     45 O8          2.5980   -1.3290   -3.8100 o         1 MOL     -0.704109
     46 H19         3.4990   -3.8100   -0.3100 hn        1 MOL      0.127818
     47 H20         4.4250   -5.1750   -2.7020 h1        1 MOL      0.069750
     48 H21         2.6680   -3.8870   -3.5270 hc        1 MOL      0.028236
     49 H22         4.1510   -3.4920   -4.3130 hc        1 MOL      0.028236
     50 N4          5.9610   -3.0550   -0.8020 n         1 MOL     -0.266437
     51 C17         7.2310   -2.3890   -0.4150 c3        1 MOL     -0.065257
     52 C18         7.6600   -1.0790   -1.1180 c         1 MOL      0.349247
     53 O9          8.8580   -0.7830   -1.2740 o         1 MOL     -0.574758
     54 H23         5.1530   -3.0240   -0.2020 hn        1 MOL      0.195585
     55 H24         8.0400   -3.1120   -0.5580 h1        1 MOL      0.080463
     56 H25         7.2770   -2.2840    0.6670 h1        1 MOL      0.080463
     57 N5          6.7190   -0.3180   -1.6610 n         1 MOL     -0.023780
     58 C19         6.9050    1.0070   -2.3730 c3        1 MOL     -0.203764
     59 C20         7.2920    2.2610   -1.4300 c         1 MOL      0.512599
     60 O10         7.9980    3.1540   -1.8410 o         1 MOL     -0.560304
     61 C21         5.6900    1.4090   -3.1960 c3        1 MOL     -0.165497
     62 C22         4.3590    1.6420   -2.4790 c         1 MOL      0.731223
     63 O11         4.2810    1.5440   -1.2070 o         1 MOL     -0.678040
     64 O12         3.4110    2.0460   -3.1660 o         1 MOL     -0.678040
     65 H26         5.7830   -0.6540   -1.4960 hn        1 MOL      0.174989
     66 H27         7.7320    0.8470   -3.0710 h1        1 MOL      0.130294
     67 H28         5.4670    0.6200   -3.9230 hc        1 MOL      0.062193
     68 H29         5.8440    2.2950   -3.8030 hc        1 MOL      0.062193
     69 N6          6.8610    2.2200   -0.1720 n         1 MOL     -0.286902
     70 C23         7.0350    3.3460    0.8370 c3        1 MOL     -0.145164
     71 C24         5.7980    4.2600    1.0030 c         1 MOL      0.442397
     72 O13         5.9300    5.3910    1.5690 o         1 MOL     -0.620514
     73 H30         6.2810    1.4340    0.1010 hn        1 MOL      0.216152
     74 H31         7.8400    4.0040    0.4850 h1        1 MOL      0.104500
     75 H32         7.3320    2.8350    1.7500 h1        1 MOL      0.104500
     76 N7          4.6370    3.9240    0.5560 n         1 MOL     -0.128968
     77 C25         3.2930    4.5660    0.8120 c3        1 MOL     -0.002964
     78 C26         2.2220    3.5690    1.1900 c         1 MOL      0.320884
     79 O14         2.2540    2.4330    0.6970 o         1 MOL     -0.441987
     80 C27         2.9550    5.4980   -0.3410 c3        1 MOL     -0.045933
     81 C28         4.1350    6.4260   -0.7740 c3        1 MOL     -0.313519
     82 C29         3.5440    7.4640   -1.7240 c         1 MOL      0.623714
     83 N8          3.0380    7.1220   -2.8700 n         1 MOL     -0.778682
     84 O15         3.5370    8.6890   -1.4230 o         1 MOL     -0.610085
     85 H33         4.5110    3.0620    0.0520 hn        1 MOL      0.154272
     86 H34         3.5560    5.1860    1.6610 h1        1 MOL      0.062840
     87 H35         2.1430    6.1580   -0.0140 hc        1 MOL      0.067866
     88 H36         2.6760    4.9450   -1.2390 hc        1 MOL      0.067866
     89 H37         4.8830    5.8420   -1.3060 hc        1 MOL      0.148396
     90 H38         4.4510    6.9310    0.1430 hc        1 MOL      0.148396
     91 H39         2.9980    6.1590   -3.1620 hn        1 MOL      0.367965
     92 H40         2.6670    7.9170   -3.3820 hn        1 MOL      0.367965
     93 N9          1.2330    3.8950    2.0080 n         1 MOL     -0.380840
     94 C30         0.0750    3.0010    2.3220 c3        1 MOL      0.006763
     95 C31        -1.0160    3.2010    1.2550 c         1 MOL      0.575268
     96 O16        -1.3950    4.3270    1.0160 o         1 MOL     -0.621214
     97 C32        -0.3450    3.1510    3.7400 c3        1 MOL      0.027129
     98 C33        -1.6470    2.3640    4.0760 c3        1 MOL     -0.031736
     99 C34         0.7260    2.7550    4.7400 c3        1 MOL     -0.031736
    100 H41         1.3270    4.7170    2.5900 hn        1 MOL      0.275735
    101 H42         0.3790    1.9500    2.2490 h1        1 MOL      0.176898
    102 H43        -0.6170    4.1900    3.9200 hc        1 MOL     -0.001451
    103 H44        -2.5450    2.7350    3.5970 hc        1 MOL      0.000563
    104 H45        -1.5490    1.3010    3.8340 hc        1 MOL      0.000563
    105 H46        -1.7750    2.4610    5.1560 hc        1 MOL      0.000563
    106 H47         1.5680    3.4450    4.7260 hc        1 MOL      0.000563
    107 H48         0.4250    2.9600    5.7660 hc        1 MOL      0.000563
    108 H49         1.0400    1.7160    4.6180 hc        1 MOL      0.000563
    109 N10        -1.4170    2.1410    0.5090 n         1 MOL     -0.092072
    110 C35        -2.4220    2.2860   -0.5760 c3        1 MOL      0.049373
    111 C36        -3.8790    1.9800    0.0180 c         1 MOL      0.301584
    112 O17        -4.0090    1.3380    1.0260 o         1 MOL     -0.420941
    113 C37        -2.0200    1.4720   -1.7740 c3        1 MOL     -0.076574
    114 C38        -3.0270    1.5020   -2.9780 c         1 MOL      0.592994
    115 N11        -3.4690    2.6800   -3.3700 n         1 MOL     -0.765899
    116 O18        -3.2600    0.4770   -3.6350 o         1 MOL     -0.506551
    117 H50        -0.9370    1.2820    0.7510 hn        1 MOL     -0.064239
    118 H51        -2.4330    3.3290   -0.9150 h1        1 MOL      0.021983
    119 H52        -1.8720    0.4540   -1.4220 hc        1 MOL      0.069335
    120 H53        -1.1040    1.9270   -2.1580 hc        1 MOL      0.069335
    121 H54        -3.3090    3.5590   -2.9150 hn        1 MOL      0.355563
    122 H55        -3.8060    2.6820   -4.3200 hn        1 MOL      0.355563
    123 N12        -4.9190    2.1960   -0.8110 n         1 MOL     -0.144766
    124 C39        -6.2910    1.9580   -0.4200 c3        1 MOL      0.023522
    125 C40        -6.5980    0.4250   -0.2580 c         1 MOL      0.650543
    126 O19        -7.3940    0.0210    0.5730 o         1 MOL     -0.493940
    127 C41        -7.1230    2.7400   -1.4470 c3        1 MOL     -0.207295
    128 C42        -8.5930    2.5120   -1.2420 ca        1 MOL      0.001710
    129 C43        -9.1630    2.9250    0.0120 ca        1 MOL     -0.144257
    130 C44        -9.4070    1.8250   -2.1600 ca        1 MOL     -0.144257
    131 C45       -10.5820    2.9540    0.1970 ca        1 MOL     -0.211186
    132 C46       -10.7890    1.6660   -1.8530 ca        1 MOL     -0.211186
    133 C47       -11.4090    2.3220   -0.7400 ca        1 MOL      0.220341
    134 O20       -12.7000    2.0820   -0.3900 oh        1 MOL     -0.475837
    135 H56        -4.6950    2.7760   -1.6050 hn        1 MOL      0.099046
    136 H57        -6.4160    2.5130    0.5150 h1        1 MOL      0.060734
    137 H58        -6.9920    2.4040   -2.4750 hc        1 MOL      0.088609
    138 H59        -6.9530    3.8110   -1.3290 hc        1 MOL      0.088609
    139 H60        -8.5390    3.4250    0.7360 ha        1 MOL      0.135087
    140 H61        -9.0100    1.4640   -3.0900 ha        1 MOL      0.135087
    141 H62       -10.9840    3.2840    1.1470 ha        1 MOL      0.137053
    142 H63       -11.3880    1.0230   -2.4890 ha        1 MOL      0.137053
    143 H64       -13.0480    1.4970   -1.0650 ho        1 MOL      0.368626
    144 N13        -5.8210   -0.4160   -1.0040 n         1 MOL     -0.357253
    145 C48        -5.7770   -1.8710   -0.8500 c3        1 MOL     -0.152494
    146 C49        -5.1090   -2.2780    0.5350 c         1 MOL      0.400843
    147 O21        -5.0820   -3.4910    0.9300 o         1 MOL     -0.531302
    148 C50        -5.1990   -2.6140   -2.0810 c3        1 MOL      0.077503
    149 C51        -5.5680   -2.2480   -3.5360 c3        1 MOL     -0.039504
    150 C52        -6.8440   -2.9220   -4.1020 c         1 MOL      0.635947
    151 O22        -6.7540   -3.3630   -5.2850 o         1 MOL     -0.721798
    152 O23        -7.8170   -3.1980   -3.3200 o         1 MOL     -0.721798
    153 H65        -5.2580   -0.0050   -1.7370 hn        1 MOL      0.220664
    154 H66        -6.8010   -2.2410   -0.8400 h1        1 MOL      0.094607
    155 H67        -5.3050   -3.6900   -1.9940 hc        1 MOL      0.041469
    156 H68        -4.1290   -2.5090   -1.9080 hc        1 MOL      0.041469
    157 H69        -4.7340   -2.4730   -4.2020 hc        1 MOL     -0.025023
    158 H70        -5.6910   -1.1790   -3.6430 hc        1 MOL     -0.025023
    159 N14        -4.4560   -1.3030    1.2420 n         1 MOL     -0.098047
    160 C53        -3.6680   -1.5040    2.4060 c3        1 MOL     -0.213715
    161 C54        -4.2360   -0.8600    3.7070 c         1 MOL      0.420558
    162 O24        -3.6240   -0.7450    4.7510 o         1 MOL     -0.546151
    163 C55        -2.2130   -1.1260    2.1310 c3        1 MOL      0.349721
    164 C56        -1.5960   -1.7500    0.8310 c3        1 MOL     -0.228208
    165 C57        -0.2490   -1.2190    0.3970 c         1 MOL      0.673418
    166 O25         0.4510   -1.9120   -0.3660 o         1 MOL     -0.692227
    167 O26         0.2250   -0.1040    0.7070 o         1 MOL     -0.692227
    168 H71        -4.5240   -0.3870    0.8100 hn        1 MOL      0.121369
    169 H72        -3.5450   -2.5750    2.5360 h1        1 MOL      0.108285
    170 H73        -1.5420   -1.4650    2.9250 hc        1 MOL     -0.021883
    171 H74        -2.0560   -0.0510    2.0750 hc        1 MOL     -0.021883
    172 H75        -2.2530   -1.5920   -0.0330 hc        1 MOL      0.043974
    173 H76        -1.4310   -2.8180    0.9510 hc        1 MOL      0.043974
    174 N15        -5.4150   -0.3040    3.5480 n         1 MOL     -0.133063
    175 C58        -6.2100    0.5240    4.5630 c3        1 MOL     -0.037237
    176 H77        -6.9970   -0.0930    4.9970 h1        1 MOL      0.046369
    177 H78        -5.5430    0.8710    5.3520 h1        1 MOL      0.046369
    178 H79        -6.6580    1.3830    4.0620 h1        1 MOL      0.046369
    179 H80        -5.6980   -0.3000    2.5700 hn        1 MOL      0.058464
    180 Ca1         2.6510    0.0160   -0.1180 Ca        1 MOL      1.694390
    181 O27         2.5050    0.1810    2.6610 oh        1 MOL     -0.860052
    182 H81         1.8180   -0.1650    3.2290 ho        1 MOL      0.413140
    183 H82         3.1450    0.5640    3.2560 ho        1 MOL      0.413140
    184 O28         1.1670    1.0090   -2.0820 oh        1 MOL     -0.860052
    185 H83         1.7810    1.3640   -2.7250 ho        1 MOL      0.413140
    186 H84         0.5980    0.4350   -2.5970 ho        1 MOL      0.413140
    187 O29         5.3580    0.1780    1.2350 oh        1 MOL     -0.860052
    188 H85         5.4480    0.3680    2.1610 ho        1 MOL      0.413140
    189 H86         5.4400   -0.7700    1.1670 ho        1 MOL      0.413140
@<TRIPOS>BOND
     1    1    2 1   
     2    1    4 1   
     3    1    5 1   
     4    1    6 1   
     5    2    3 2   
     6    2    7 1   
     7    7    8 1   
     8    7   15 1   
     9    8    9 1   
    10    8   11 1   
    11    8   16 1   
    12    9   10 2   
    13    9   19 1   
    14   11   12 1   
    15   11   17 1   
    16   11   18 1   
    17   12   13 1   
    18   12   14 1   
    19   19   20 1   
    20   19   27 1   
    21   20   21 1   
    22   20   23 1   
    23   20   28 1   
    24   21   22 2   
    25   21   38 1   
    26   23   24 1   
    27   23   25 1   
    28   23   29 1   
    29   24   26 1   
    30   24   30 1   
    31   24   31 1   
    32   25   32 1   
    33   25   33 1   
    34   25   34 1   
    35   26   35 1   
    36   26   36 1   
    37   26   37 1   
    38   38   39 1   
    39   38   46 1   
    40   39   40 1   
    41   39   42 1   
    42   39   47 1   
    43   40   41 2   
    44   40   50 1   
    45   42   43 1   
    46   42   48 1   
    47   42   49 1   
    48   43   44 1   
    49   43   45 1   
    50   50   51 1   
    51   50   54 1   
    52   51   52 1   
    53   51   55 1   
    54   51   56 1   
    55   52   53 2   
    56   52   57 1   
    57   57   58 1   
    58   57   65 1   
    59   58   59 1   
    60   58   61 1   
    61   58   66 1   
    62   59   60 2   
    63   59   69 1   
    64   61   62 1   
    65   61   67 1   
    66   61   68 1   
    67   62   63 1   
    68   62   64 1   
    69   69   70 1   
    70   69   73 1   
    71   70   71 1   
    72   70   74 1   
    73   70   75 1   
    74   71   72 2   
    75   71   76 1   
    76   76   77 1   
    77   76   85 1   
    78   77   78 1   
    79   77   80 1   
    80   77   86 1   
    81   78   79 2   
    82   78   93 1   
    83   80   81 1   
    84   80   87 1   
    85   80   88 1   
    86   81   82 1   
    87   81   89 1   
    88   81   90 1   
    89   82   83 1   
    90   82   84 2   
    91   83   91 1   
    92   83   92 1   
    93   93   94 1   
    94   93  100 1   
    95   94   95 1   
    96   94   97 1   
    97   94  101 1   
    98   95   96 2   
    99   95  109 1   
   100   97   98 1   
   101   97   99 1   
   102   97  102 1   
   103   98  103 1   
   104   98  104 1   
   105   98  105 1   
   106   99  106 1   
   107   99  107 1   
   108   99  108 1   
   109  109  110 1   
   110  109  117 1   
   111  110  111 1   
   112  110  113 1   
   113  110  118 1   
   114  111  112 2   
   115  111  123 1   
   116  113  114 1   
   117  113  119 1   
   118  113  120 1   
   119  114  115 1   
   120  114  116 2   
   121  115  121 1   
   122  115  122 1   
   123  123  124 1   
   124  123  135 1   
   125  124  125 1   
   126  124  127 1   
   127  124  136 1   
   128  125  126 2   
   129  125  144 1   
   130  127  128 1   
   131  127  137 1   
   132  127  138 1   
   133  128  129 ar  
   134  128  130 ar  
   135  129  131 ar  
   136  129  139 1   
   137  130  132 ar  
   138  130  140 1   
   139  131  133 ar  
   140  131  141 1   
   141  132  133 ar  
   142  132  142 1   
   143  133  134 1   
   144  134  143 1   
   145  144  145 1   
   146  144  153 1   
   147  145  146 1   
   148  145  148 1   
   149  145  154 1   
   150  146  147 2   
   151  146  159 1   
   152  148  149 1   
   153  148  155 1   
   154  148  156 1   
   155  149  150 1   
   156  149  157 1   
   157  149  158 1   
   158  150  151 1   
   159  150  152 1   
   160  159  160 1   
   161  159  168 1   
   162  160  161 1   
   163  160  163 1   
   164  160  169 1   
   165  161  162 2   
   166  161  174 1   
   167  163  164 1   
   168  163  170 1   
   169  163  171 1   
   170  164  165 1   
   171  164  172 1   
   172  164  173 1   
   173  165  166 1   
   174  165  167 1   
   175  174  175 1   
   176  174  179 1   
   177  175  176 1   
   178  175  177 1   
   179  175  178 1   
   180  181  182 1   
   181  181  183 1   
   182  184  185 1   
   183  184  186 1   
   184  187  188 1   
   185  187  189 1   
@<TRIPOS>SUBSTRUCTURE
     1 MOL         1 TEMP              0 ****  ****    0 ROOT
