@<TRIPOS>MOLECULE
MOL
  179   176     1     0     0
SMALL
resp


@<TRIPOS>ATOM
      1 C1         -0.3410    4.9400    4.8750 c3        1 MOL     -0.328679
      2 C2         -0.5160    4.3250    3.4970 c         1 MOL      0.525859
      3 O1          0.1960    4.7520    2.5780 o         1 MOL     -0.545023
      4 H1         -0.0430    4.1660    5.5820 hc        1 MOL      0.078657
      5 H2          0.4280    5.7110    4.8350 hc        1 MOL      0.078657
      6 H3         -1.2830    5.3830    5.1980 hc        1 MOL      0.078657
      7 N1         -1.4800    3.4490    3.3660 n         1 MOL     -0.279846
      8 C3         -1.9560    2.8460    2.0870 c3        1 MOL      0.070520
      9 C4         -2.8880    3.7100    1.1610 c         1 MOL      0.228094
     10 O2         -4.0930    3.6690    1.3050 o         1 MOL     -0.403000
     11 C5         -2.6260    1.5140    2.4650 c3        1 MOL     -0.299265
     12 C6         -3.1320    0.6860    1.2440 c         1 MOL      0.841126
     13 O3         -2.6860    0.9120    0.1230 o         1 MOL     -0.716455
     14 O4         -3.9140   -0.2430    1.4780 o         1 MOL     -0.716455
     15 H4         -2.0640    3.4120    4.1850 hn        1 MOL      0.252026
     16 H5         -1.0710    2.5020    1.5600 h1        1 MOL      0.075570
     17 H6         -3.5570    1.7080    3.0100 hc        1 MOL      0.060542
     18 H7         -1.9380    0.9320    3.0720 hc        1 MOL      0.060542
     19 N2         -2.3190    4.6420    0.3900 n         1 MOL     -0.072383
     20 C7         -3.1450    5.7260   -0.3420 c3        1 MOL     -0.016236
     21 C8         -4.1660    5.1300   -1.2990 c         1 MOL      0.310777
     22 O5         -5.3170    5.5770   -1.3950 o         1 MOL     -0.513277
     23 C9         -2.3410    6.7840   -1.0070 c3        1 MOL     -0.097647
     24 C10        -1.1600    7.3490   -0.1380 c3        1 MOL     -0.213264
     25 C11        -1.3180    7.6820    1.3140 c3        1 MOL     -0.074188
     26 C12        -2.2760    8.8810    1.6460 c3        1 MOL      0.083907
     27 N3         -2.3750    9.1880    3.0710 n4        1 MOL     -0.415078
     28 H8         -1.3060    4.6750    0.3650 hn        1 MOL      0.204819
     29 H9         -3.7820    6.0970    0.4510 h1        1 MOL      0.064083
     30 H10        -2.9640    7.5830   -1.4010 hc        1 MOL      0.077093
     31 H11        -1.8930    6.4050   -1.9220 hc        1 MOL      0.077093
     32 H12        -0.7180    8.1940   -0.6780 hc        1 MOL      0.104865
     33 H13        -0.4210    6.5460   -0.2330 hc        1 MOL      0.104865
     34 H14        -0.3080    7.8040    1.6910 hc        1 MOL      0.065224
     35 H15        -1.7220    6.7980    1.8010 hc        1 MOL      0.065224
     36 H16        -3.2760    8.7640    1.2500 hx        1 MOL      0.082024
     37 H17        -1.8820    9.7410    1.0990 hx        1 MOL      0.082024
     38 H18        -2.9270    9.9830    3.3460 hn        1 MOL      0.337425
     39 H19        -3.0090    8.5010    3.4550 hn        1 MOL      0.337425
     40 H20        -1.5280    9.2780    3.6120 hn        1 MOL      0.337425
     41 N4         -3.8080    4.0520   -1.9980 n         1 MOL     -0.093374
     42 C13        -4.6450    3.3200   -2.9380 c3        1 MOL      0.004247
     43 C14        -5.7100    2.4310   -2.3870 c         1 MOL      0.426226
     44 O6         -6.6810    2.1700   -3.0750 o         1 MOL     -0.520260
     45 C15        -3.6560    2.6560   -3.9450 c3        1 MOL     -0.159387
     46 C16        -2.9190    1.5970   -3.2180 c         1 MOL      0.693613
     47 O7         -3.3890    0.4280   -3.0580 o         1 MOL     -0.700924
     48 O8         -1.7450    1.8210   -2.8170 o         1 MOL     -0.700924
     49 H21        -2.8850    3.6910   -1.8090 hn        1 MOL      0.088475
     50 H22        -5.1870    4.0520   -3.5380 h1        1 MOL      0.082995
     51 H23        -2.9980    3.4680   -4.2590 hc        1 MOL      0.045924
     52 H24        -4.2680    2.3130   -4.7840 hc        1 MOL      0.045924
     53 N5         -5.5220    2.1080   -1.0890 n         1 MOL      0.031473
     54 C17        -6.4660    1.3250   -0.3470 c3        1 MOL     -0.342658
     55 C18        -6.6040   -0.2250   -0.6670 c         1 MOL      0.526219
     56 O9         -7.6520   -0.7780   -0.3690 o         1 MOL     -0.560297
     57 H25        -4.6740    2.4480   -0.6520 hn        1 MOL      0.025050
     58 H26        -7.4460    1.7950   -0.4730 h1        1 MOL      0.144727
     59 H27        -6.1800    1.3550    0.7040 h1        1 MOL      0.144727
     60 N6         -5.5620   -0.8920   -1.2140 n         1 MOL     -0.173651
     61 C19        -5.6670   -2.3770   -1.5450 c3        1 MOL      0.072151
     62 C20        -5.5500   -3.2260   -0.2600 c         1 MOL      0.257138
     63 O10        -5.6180   -4.4390   -0.3840 o         1 MOL     -0.430684
     64 C21        -4.7010   -2.8830   -2.5880 c3        1 MOL     -0.316876
     65 C22        -3.2060   -2.9260   -2.3100 c         1 MOL      0.643281
     66 N7         -2.3070   -3.6860   -2.8790 n         1 MOL     -0.715798
     67 O11        -2.7480   -2.1960   -1.4540 o         1 MOL     -0.477642
     68 H28        -4.6710   -0.4110   -1.2550 hn        1 MOL      0.052445
     69 H29        -6.7000   -2.5460   -1.8320 h1        1 MOL      0.121554
     70 H30        -4.8430   -2.2680   -3.4740 hc        1 MOL      0.103781
     71 H31        -4.9490   -3.9130   -2.8500 hc        1 MOL      0.103781
     72 H32        -2.6750   -4.3540   -3.5370 hn        1 MOL      0.333737
     73 H33        -1.3350   -3.4060   -2.8520 hn        1 MOL      0.333737
     74 N8         -5.1530   -2.6390    0.9070 n         1 MOL     -0.140846
     75 C23        -4.9690   -3.2870    2.2110 c3        1 MOL     -0.239494
     76 C24        -3.5310   -3.7500    2.5400 c         1 MOL      0.510722
     77 O12        -3.3670   -4.5180    3.5470 o         1 MOL     -0.573083
     78 H34        -4.9340   -1.6570    0.9140 hn        1 MOL      0.266391
     79 H35        -5.5770   -4.1880    2.2600 h1        1 MOL      0.122952
     80 H36        -5.3350   -2.6480    3.0180 h1        1 MOL      0.122952
     81 N9         -2.6240   -3.4200    1.6400 n         1 MOL     -0.273501
     82 C25        -1.2810   -3.8490    1.7250 c3        1 MOL      0.438758
     83 C26        -0.3180   -2.6380    1.5070 c         1 MOL      0.218156
     84 O13        -0.5870   -1.6460    0.7730 o         1 MOL     -0.579689
     85 C27        -1.0720   -5.0110    0.6640 c3        1 MOL      0.111248
     86 C28        -1.9720   -6.2270    0.6830 ca        1 MOL     -0.043419
     87 C29        -2.9750   -6.3780   -0.2970 ca        1 MOL     -0.131692
     88 C30        -1.7860   -7.1930    1.6530 ca        1 MOL     -0.131692
     89 C31        -3.6760   -7.6630   -0.3860 ca        1 MOL     -0.263959
     90 C32        -2.6240   -8.3570    1.7000 ca        1 MOL     -0.263959
     91 C33        -3.5380   -8.5700    0.6730 ca        1 MOL      0.328151
     92 O14        -4.4410   -9.5460    0.7960 oh        1 MOL     -0.483204
     93 H37        -2.9280   -2.8000    0.8980 hn        1 MOL      0.179901
     94 H38        -1.1120   -4.2490    2.7270 h1        1 MOL     -0.059842
     95 H39        -0.0460   -5.3200    0.8390 hc        1 MOL     -0.047324
     96 H40        -1.1440   -4.6980   -0.3720 hc        1 MOL     -0.047324
     97 H41        -3.1650   -5.6730   -1.0940 ha        1 MOL      0.120121
     98 H42        -1.0670   -6.9510    2.4330 ha        1 MOL      0.120121
     99 H43        -4.4720   -7.8170   -1.1010 ha        1 MOL      0.143701
    100 H44        -2.5350   -9.0940    2.4750 ha        1 MOL      0.143701
    101 H45        -4.2880  -10.2220    1.4640 ho        1 MOL      0.370238
    102 N10         0.8690   -2.7760    2.1030 n         1 MOL     -0.446090
    103 C34         1.9820   -1.8420    1.8170 c3        1 MOL      0.158678
    104 C35         3.1960   -2.6480    1.4320 c         1 MOL      0.522415
    105 O15         3.5900   -3.5030    2.2520 o         1 MOL     -0.532300
    106 C36         2.1860   -0.8300    2.9810 c3        1 MOL      0.005029
    107 C37         0.8580   -0.0840    3.4390 c3        1 MOL      0.014038
    108 C38         3.2180    0.2430    2.4830 c3        1 MOL     -0.212316
    109 C39         0.9720    0.7400    4.7220 c3        1 MOL      0.020842
    110 H46         1.0180   -3.5670    2.7060 hn        1 MOL      0.305011
    111 H47         1.7780   -1.2630    0.9190 h1        1 MOL      0.056937
    112 H48         2.5490   -1.4430    3.7990 hc        1 MOL      0.021785
    113 H49         0.0370   -0.7520    3.6770 hc        1 MOL      0.052858
    114 H50         0.5680    0.6200    2.6600 hc        1 MOL      0.052858
    115 H51         3.2380    1.0290    3.2400 hc        1 MOL      0.054918
    116 H52         4.2220   -0.1760    2.4370 hc        1 MOL      0.054918
    117 H53         2.9800    0.6880    1.5130 hc        1 MOL      0.054918
    118 H54         0.0000    1.2280    4.7780 hc        1 MOL     -0.014548
    119 H55         1.0510    0.0240    5.5330 hc        1 MOL     -0.014548
    120 H56         1.8360    1.3750    4.9030 hc        1 MOL     -0.014548
    121 N11         3.8390   -2.2690    0.2990 n         1 MOL     -0.458019
    122 C40         5.1830   -2.8010    0.0300 c3        1 MOL      0.144179
    123 C41         6.3200   -1.9340    0.5910 c         1 MOL      0.390897
    124 O16         6.0360   -0.8350    1.1410 o         1 MOL     -0.340803
    125 C42         5.3380   -2.9780   -1.4900 c3        1 MOL     -0.242781
    126 O17         5.6960   -1.7690   -2.0490 oh        1 MOL     -0.345613
    127 H57         3.4960   -1.5720   -0.3480 hn        1 MOL      0.298439
    128 H58         5.2460   -3.7600    0.5390 h1        1 MOL      0.063179
    129 H59         4.3610   -3.2670   -1.8740 h1        1 MOL      0.117170
    130 H60         6.0110   -3.7810   -1.7850 h1        1 MOL      0.117170
    131 H61         5.5510   -1.9660   -2.9780 ho        1 MOL      0.385561
    132 N12         7.6140   -2.3740    0.5780 n         1 MOL     -0.425325
    133 C43         8.7230   -1.5530    0.9470 c3        1 MOL      0.189621
    134 C44         9.0710   -0.5040   -0.0880 c         1 MOL      0.439841
    135 O18         9.4300    0.6080    0.3060 o         1 MOL     -0.515667
    136 C45         9.8940   -2.4440    1.2340 c3        1 MOL     -0.226396
    137 H62         7.7370   -3.3660    0.3890 hn        1 MOL      0.276208
    138 H63         8.4970   -1.0800    1.9070 h1        1 MOL      0.071783
    139 H64         9.5910   -3.2400    1.9070 hc        1 MOL      0.067896
    140 H65        10.2580   -2.9240    0.3180 hc        1 MOL      0.067896
    141 H66        10.6900   -1.8730    1.7080 hc        1 MOL      0.067896
    142 N13         8.9310   -0.7350   -1.3920 n         1 MOL     -0.393077
    143 C46         8.9670    0.2870   -2.4020 c3        1 MOL      0.203426
    144 C47         7.8040    1.2560   -2.2900 c         1 MOL      0.314886
    145 O19         8.0560    2.4370   -2.5990 o         1 MOL     -0.507083
    146 C48         8.9810   -0.3770   -3.7790 c3        1 MOL     -0.224852
    147 H67         8.6560   -1.6770   -1.6290 hn        1 MOL      0.235931
    148 H68         9.9070    0.8180   -2.2280 h1        1 MOL      0.077684
    149 H69         7.9930   -0.8210   -3.8860 hc        1 MOL      0.061652
    150 H70         9.2120    0.3660   -4.5430 hc        1 MOL      0.061652
    151 H71         9.7500   -1.1520   -3.7600 hc        1 MOL      0.061652
    152 N14         6.5700    0.8510   -1.8700 n         1 MOL      0.074460
    153 C49         5.5130    1.7890   -1.6290 c3        1 MOL     -0.115988
    154 C50         5.6680    2.6310   -0.3090 c         1 MOL      0.409864
    155 O20         5.3160    3.8270   -0.2850 o         1 MOL     -0.539610
    156 C51         4.2510    0.9960   -1.6910 c3        1 MOL      0.005680
    157 C52         3.0320    1.9180   -1.3440 c3        1 MOL     -0.222510
    158 C53         1.7470    1.0880   -1.3130 c         1 MOL      0.856534
    159 O21         0.9640    1.1460   -0.3670 o         1 MOL     -0.830969
    160 O22         1.4010    0.3630   -2.2690 o         1 MOL     -0.830969
    161 H72         6.3190   -0.1280   -1.8140 hn        1 MOL     -0.105916
    162 H73         5.5320    2.4220   -2.5250 h1        1 MOL      0.093512
    163 H74         4.2780    0.2310   -0.9160 hc        1 MOL      0.023315
    164 H75         4.1630    0.6760   -2.7390 hc        1 MOL      0.023315
    165 H76         2.8840    2.6900   -2.0880 hc        1 MOL      0.084902
    166 H77         3.0720    2.4960   -0.4190 hc        1 MOL      0.084902
    167 N15         6.2280    2.0170    0.7660 n         1 MOL      0.044396
    168 C54         6.5580    2.7190    1.9760 c3        1 MOL     -0.347548
    169 H78         6.8240    2.0000    2.7510 h1        1 MOL      0.121858
    170 H79         7.4040    3.3820    1.7930 h1        1 MOL      0.121858
    171 H80         5.6990    3.3050    2.3030 h1        1 MOL      0.121858
    172 H81         6.4710    1.0460    0.5970 hn        1 MOL      0.029993
    173 Ca1        -1.0080   -0.2770   -1.4100 Ca        1 MOL      1.701136
    174 O23         0.4040   -2.5310   -2.1810 oh        1 MOL     -0.750347
    175 H82         0.8810   -2.1390   -2.9180 ho        1 MOL      0.380056
    176 H83         1.0240   -3.1490   -1.7960 ho        1 MOL      0.380056
    177 O24        -1.0860   -0.7390   -4.1500 oh        1 MOL     -0.750347
    178 H84        -1.4540   -1.4040   -4.7450 ho        1 MOL      0.380056
    179 H85        -1.3260    0.0920   -4.5560 ho        1 MOL      0.380056
@<TRIPOS>BOND
     1    1    2 1   
     2    1    4 1   
     3    1    5 1   
     4    1    6 1   
     5    2    3 2   
     6    2    7 1   
     7    7    8 1   
     8    7   15 1   
     9    8    9 1   
    10    8   11 1   
    11    8   16 1   
    12    9   10 2   
    13    9   19 1   
    14   11   12 1   
    15   11   17 1   
    16   11   18 1   
    17   12   13 1   
    18   12   14 1   
    19   19   20 1   
    20   19   28 1   
    21   20   21 1   
    22   20   23 1   
    23   20   29 1   
    24   21   22 2   
    25   21   41 1   
    26   23   24 1   
    27   23   30 1   
    28   23   31 1   
    29   24   25 1   
    30   24   32 1   
    31   24   33 1   
    32   25   26 1   
    33   25   34 1   
    34   25   35 1   
    35   26   27 1   
    36   26   36 1   
    37   26   37 1   
    38   27   38 1   
    39   27   39 1   
    40   27   40 1   
    41   41   42 1   
    42   41   49 1   
    43   42   43 1   
    44   42   45 1   
    45   42   50 1   
    46   43   44 2   
    47   43   53 1   
    48   45   46 1   
    49   45   51 1   
    50   45   52 1   
    51   46   47 1   
    52   46   48 1   
    53   53   54 1   
    54   53   57 1   
    55   54   55 1   
    56   54   58 1   
    57   54   59 1   
    58   55   56 2   
    59   55   60 1   
    60   60   61 1   
    61   60   68 1   
    62   61   62 1   
    63   61   64 1   
    64   61   69 1   
    65   62   63 2   
    66   62   74 1   
    67   64   65 1   
    68   64   70 1   
    69   64   71 1   
    70   65   66 1   
    71   65   67 2   
    72   66   72 1   
    73   66   73 1   
    74   74   75 1   
    75   74   78 1   
    76   75   76 1   
    77   75   79 1   
    78   75   80 1   
    79   76   77 2   
    80   76   81 1   
    81   81   82 1   
    82   81   93 1   
    83   82   83 1   
    84   82   85 1   
    85   82   94 1   
    86   83   84 2   
    87   83  102 1   
    88   85   86 1   
    89   85   95 1   
    90   85   96 1   
    91   86   87 ar  
    92   86   88 ar  
    93   87   89 ar  
    94   87   97 1   
    95   88   90 ar  
    96   88   98 1   
    97   89   91 ar  
    98   89   99 1   
    99   90   91 ar  
   100   90  100 1   
   101   91   92 1   
   102   92  101 1   
   103  102  103 1   
   104  102  110 1   
   105  103  104 1   
   106  103  106 1   
   107  103  111 1   
   108  104  105 2   
   109  104  121 1   
   110  106  107 1   
   111  106  108 1   
   112  106  112 1   
   113  107  109 1   
   114  107  113 1   
   115  107  114 1   
   116  108  115 1   
   117  108  116 1   
   118  108  117 1   
   119  109  118 1   
   120  109  119 1   
   121  109  120 1   
   122  121  122 1   
   123  121  127 1   
   124  122  123 1   
   125  122  125 1   
   126  122  128 1   
   127  123  124 2   
   128  123  132 1   
   129  125  126 1   
   130  125  129 1   
   131  125  130 1   
   132  126  131 1   
   133  132  133 1   
   134  132  137 1   
   135  133  134 1   
   136  133  136 1   
   137  133  138 1   
   138  134  135 2   
   139  134  142 1   
   140  136  139 1   
   141  136  140 1   
   142  136  141 1   
   143  142  143 1   
   144  142  147 1   
   145  143  144 1   
   146  143  146 1   
   147  143  148 1   
   148  144  145 2   
   149  144  152 1   
   150  146  149 1   
   151  146  150 1   
   152  146  151 1   
   153  152  153 1   
   154  152  161 1   
   155  153  154 1   
   156  153  156 1   
   157  153  162 1   
   158  154  155 2   
   159  154  167 1   
   160  156  157 1   
   161  156  163 1   
   162  156  164 1   
   163  157  158 1   
   164  157  165 1   
   165  157  166 1   
   166  158  159 1   
   167  158  160 1   
   168  167  168 1   
   169  167  172 1   
   170  168  169 1   
   171  168  170 1   
   172  168  171 1   
   173  174  175 1   
   174  174  176 1   
   175  177  178 1   
   176  177  179 1   
@<TRIPOS>SUBSTRUCTURE
     1 MOL         1 TEMP              0 ****  ****    0 ROOT
