@<TRIPOS>MOLECULE
MOL
  175   173     1     0     0
SMALL
resp


@<TRIPOS>ATOM
      1 C1         -0.4190    4.1600    5.6530 c3        1 MOL     -0.377980
      2 C2         -0.7490    4.0340    4.1790 c         1 MOL      0.708691
      3 O1          0.0830    4.0760    3.2330 o         1 MOL     -0.599437
      4 H1         -0.1650    3.1780    6.0530 hc        1 MOL      0.093497
      5 H2          0.4280    4.8340    5.7800 hc        1 MOL      0.093497
      6 H3         -1.2830    4.5580    6.1870 hc        1 MOL      0.093497
      7 N1         -2.0040    3.7920    3.8510 n         1 MOL     -0.529103
      8 C3         -2.5340    3.4140    2.5600 c3        1 MOL     -0.017697
      9 C4         -2.7200    4.6000    1.5600 c         1 MOL      0.718276
     10 O2         -3.1350    5.6530    1.9500 o         1 MOL     -0.599520
     11 C5         -3.8510    2.7360    2.8120 c3        1 MOL     -0.338686
     12 C6         -4.3500    2.3760    1.4360 c         1 MOL      0.804009
     13 O3         -5.5140    2.8470    1.2470 o         1 MOL     -0.682599
     14 O4         -3.6890    1.7470    0.6280 o         1 MOL     -0.682599
     15 H4         -2.6760    3.6170    4.5890 hn        1 MOL      0.296158
     16 H5         -1.8870    2.6370    2.1430 h1        1 MOL      0.117575
     17 H6         -4.5070    3.3610    3.4170 hc        1 MOL      0.059650
     18 H7         -3.6970    1.7810    3.3150 hc        1 MOL      0.059650
     19 N2         -2.3980    4.4370    0.3250 n         1 MOL     -0.492202
     20 C7         -2.5930    5.4370   -0.7700 c3        1 MOL      0.129403
     21 C8         -3.1530    4.8640   -2.0980 c         1 MOL      0.602282
     22 O5         -3.1290    5.6010   -3.0800 o         1 MOL     -0.558748
     23 C9         -1.2240    6.3050   -0.9610 c3        1 MOL     -0.105974
     24 H8         -2.0220    3.5280    0.1240 hn        1 MOL      0.278089
     25 H9         -3.2860    6.1850   -0.3850 h1        1 MOL      0.046033
     26 H10        -0.9990    6.9640   -0.1180 hc        1 MOL      0.021333
     27 H11        -0.4130    5.5850   -1.0450 hc        1 MOL      0.021333
     28 H12        -1.3500    6.9130   -1.8480 hc        1 MOL      0.021333
     29 N3         -3.8590    3.7010   -2.0250 n         1 MOL     -0.455305
     30 C10        -4.6590    3.2500   -3.0850 c3        1 MOL      0.068410
     31 C11        -5.9860    2.4770   -2.5830 c         1 MOL      0.387126
     32 O6         -6.9490    2.3810   -3.3080 o         1 MOL     -0.556784
     33 C12        -3.8290    2.2430   -3.9540 c3        1 MOL     -0.070806
     34 C13        -3.0740    1.1790   -3.1370 c         1 MOL      0.692146
     35 O7         -3.6750    0.5580   -2.2230 o         1 MOL     -0.706681
     36 O8         -1.8500    1.0590   -3.3050 o         1 MOL     -0.706681
     37 H13        -3.6910    3.0900   -1.2450 hn        1 MOL      0.210852
     38 H14        -4.9740    4.0590   -3.7350 h1        1 MOL      0.072667
     39 H15        -3.1430    2.8920   -4.4960 hc        1 MOL      0.012869
     40 H16        -4.3510    1.7200   -4.7580 hc        1 MOL      0.012869
     41 N4         -6.0030    1.8530   -1.3640 n         1 MOL     -0.092914
     42 C14        -7.2100    1.2480   -0.7820 c3        1 MOL     -0.135328
     43 C15        -7.2910   -0.2790   -1.0110 c         1 MOL      0.451002
     44 O9         -8.3530   -0.8350   -0.9240 o         1 MOL     -0.579542
     45 H17        -5.1940    1.8590   -0.7490 hn        1 MOL      0.083263
     46 H18        -8.1530    1.6590   -1.1420 h1        1 MOL      0.092574
     47 H19        -7.1730    1.4440    0.2860 h1        1 MOL      0.092574
     48 N5         -6.1370   -0.8540   -1.4250 n         1 MOL     -0.067412
     49 C16        -6.1330   -2.2500   -1.8750 c3        1 MOL     -0.081953
     50 C17        -6.1620   -3.3360   -0.7660 c         1 MOL      0.427031
     51 O10        -6.3820   -4.5150   -1.1140 o         1 MOL     -0.533066
     52 C18        -5.0250   -2.4550   -2.9300 c3        1 MOL     -0.086393
     53 C19        -3.6430   -2.4780   -2.3850 c         1 MOL      0.606327
     54 N6         -2.7020   -2.5430   -3.2430 n         1 MOL     -0.656925
     55 O11        -3.3690   -2.3340   -1.1880 o         1 MOL     -0.492022
     56 H20        -5.2770   -0.3220   -1.5220 hn        1 MOL      0.039121
     57 H21        -7.0560   -2.4380   -2.4380 h1        1 MOL      0.101266
     58 H22        -5.0770   -1.6540   -3.6600 hc        1 MOL      0.037798
     59 H23        -5.1590   -3.3890   -3.4820 hc        1 MOL      0.037798
     60 H24        -2.8640   -2.4800   -4.2370 hn        1 MOL      0.331459
     61 H25        -1.8070   -2.2200   -2.8970 hn        1 MOL      0.331459
     62 N7         -5.9500   -2.9930    0.5090 n         1 MOL     -0.216533
     63 C20        -5.9950   -3.9680    1.6220 c3        1 MOL     -0.288487
     64 C21        -4.7000   -4.6570    1.8730 c         1 MOL      0.571773
     65 O12        -4.7640   -5.6000    2.6480 o         1 MOL     -0.585874
     66 H26        -5.7000   -2.0270    0.6790 hn        1 MOL      0.233730
     67 H27        -6.7680   -4.7260    1.4970 h1        1 MOL      0.131169
     68 H28        -6.1720   -3.3470    2.4990 h1        1 MOL      0.131169
     69 N8         -3.5930   -4.2900    1.2050 n         1 MOL     -0.131638
     70 C22        -2.2270   -4.6750    1.4800 c3        1 MOL     -0.268978
     71 C23        -1.2850   -3.4640    1.7090 c         1 MOL      0.563475
     72 O13        -1.5590   -2.3800    1.1400 o         1 MOL     -0.584768
     73 C24        -1.5960   -5.4260    0.2950 c3        1 MOL      0.445834
     74 C25        -2.3060   -6.8020    0.3210 c3        1 MOL     -0.549858
     75 O14        -1.8560   -4.8510   -0.9660 oh        1 MOL     -0.551103
     76 H29        -3.7130   -3.5230    0.5600 hn        1 MOL      0.139681
     77 H30        -2.0730   -5.3470    2.3210 h1        1 MOL      0.113538
     78 H31        -0.5210   -5.6080    0.3400 h1        1 MOL      0.014810
     79 H32        -1.3810   -4.0180   -1.0150 ho        1 MOL      0.327970
     80 H33        -2.1500   -7.2730    1.2910 hc        1 MOL      0.141673
     81 H34        -3.3900   -6.7460    0.2270 hc        1 MOL      0.141673
     82 H35        -1.9320   -7.4530   -0.4640 hc        1 MOL      0.141673
     83 N9         -0.2060   -3.5930    2.5000 n         1 MOL     -0.547642
     84 C26         0.8990   -2.6050    2.3440 c3        1 MOL     -0.020797
     85 C27         1.7130   -3.0030    1.1210 c         1 MOL      0.417839
     86 O15         2.2050   -4.1490    1.0960 o         1 MOL     -0.589007
     87 C28         1.7510   -2.5150    3.6840 c3        1 MOL      0.360530
     88 C29         0.9890   -1.7890    4.7940 c3        1 MOL     -0.242451
     89 C30         3.0510   -1.6850    3.4580 c3        1 MOL     -0.381411
     90 C31         1.7840   -1.6330    6.1500 c3        1 MOL      0.112075
     91 H36        -0.0600   -4.4920    2.9510 hn        1 MOL      0.308539
     92 H37         0.4620   -1.6480    2.0670 h1        1 MOL      0.030111
     93 H38         2.0760   -3.5140    3.9600 hc        1 MOL     -0.017477
     94 H39         0.1080   -2.3280    5.1450 hc        1 MOL      0.039425
     95 H40         0.7940   -0.7690    4.4730 hc        1 MOL      0.039425
     96 H41         3.6290   -1.9860    2.5810 hc        1 MOL      0.078924
     97 H42         2.8190   -0.6240    3.3960 hc        1 MOL      0.078924
     98 H43         3.7060   -1.9650    4.2900 hc        1 MOL      0.078924
     99 H44         2.1220   -2.5950    6.5240 hc        1 MOL     -0.025345
    100 H45         2.6790   -1.0410    5.9670 hc        1 MOL     -0.025345
    101 H46         1.2610   -1.1620    6.9810 hc        1 MOL     -0.025345
    102 N10         1.7600   -2.0780    0.1870 n         1 MOL     -0.201448
    103 C32         2.6030   -2.1140   -1.0410 c3        1 MOL      0.158457
    104 C33         3.9720   -1.4480   -0.7830 c         1 MOL      0.496054
    105 O16         4.1080   -0.5790    0.0750 o         1 MOL     -0.393685
    106 C34         1.8870   -1.4770   -2.2500 c3        1 MOL     -0.327555
    107 C35         0.3740   -1.8610   -2.4640 c         1 MOL      0.759532
    108 O17        -0.5460   -1.3620   -1.7900 o         1 MOL     -0.668375
    109 O18         0.1450   -2.7340   -3.2470 o         1 MOL     -0.668375
    110 H47         1.2560   -1.2300    0.4100 hn        1 MOL      0.300900
    111 H48         2.8200   -3.1580   -1.2730 h1        1 MOL      0.033797
    112 H49         2.4840   -1.7470   -3.1250 hc        1 MOL      0.075194
    113 H50         2.0000   -0.4080   -2.1050 hc        1 MOL      0.075194
    114 N11         5.0500   -1.8020   -1.5360 n         1 MOL     -0.841954
    115 C36         6.4720   -1.4070   -1.4050 c3        1 MOL      0.681347
    116 C37         6.8130    0.0910   -1.3380 c         1 MOL      0.206615
    117 O19         7.7320    0.3580   -0.5470 o         1 MOL     -0.474042
    118 C38         7.3780   -2.1890   -2.3110 c3        1 MOL     -0.353343
    119 C39         8.9200   -2.0480   -1.9890 ca        1 MOL      0.118318
    120 C40         9.8510   -1.3610   -2.8320 ca        1 MOL     -0.173875
    121 C41         9.4190   -2.4770   -0.7280 ca        1 MOL     -0.173875
    122 C42        11.2340   -1.2350   -2.5420 ca        1 MOL     -0.104808
    123 C43        10.7890   -2.3480   -0.3780 ca        1 MOL     -0.104808
    124 C44        11.6690   -1.7190   -1.3010 ca        1 MOL     -0.126937
    125 H51         4.7260   -2.4010   -2.2830 hn        1 MOL      0.356234
    126 H52         6.8000   -1.7560   -0.4300 h1        1 MOL      0.022343
    127 H53         7.2730   -1.8180   -3.3280 hc        1 MOL      0.088510
    128 H54         7.0290   -3.2200   -2.2610 hc        1 MOL      0.088510
    129 H55         9.4740   -0.7160   -3.6140 ha        1 MOL      0.116078
    130 H56         8.6680   -2.7780   -0.0050 ha        1 MOL      0.116078
    131 H57        11.9210   -0.7500   -3.2260 ha        1 MOL      0.114189
    132 H58        11.1480   -2.5530    0.6150 ha        1 MOL      0.114189
    133 H59        12.6790   -1.5060   -0.9800 ha        1 MOL      0.100800
    134 N12         6.0660    1.0900   -1.9030 n         1 MOL     -0.013401
    135 C45         6.3490    2.5170   -1.6470 c3        1 MOL      0.081912
    136 C46         5.6770    2.9080   -0.2910 c         1 MOL      0.371468
    137 O20         6.1660    3.7630    0.3570 o         1 MOL     -0.511971
    138 C47         5.9260    3.2740   -2.8780 c3        1 MOL     -0.267584
    139 C48         4.7300    2.4610   -3.4610 c3        1 MOL      0.104987
    140 C49         5.0040    1.0160   -2.9050 c3        1 MOL     -0.079025
    141 H60         7.4290    2.6110   -1.5860 h1        1 MOL      0.048495
    142 H61         5.5610    4.2740   -2.6370 hc        1 MOL      0.088815
    143 H62         6.7410    3.1640   -3.5830 hc        1 MOL      0.088815
    144 H63         3.7960    2.8540   -3.0630 hc        1 MOL      0.014772
    145 H64         4.7260    2.4820   -4.5450 hc        1 MOL      0.014772
    146 H65         4.0170    0.6640   -2.6050 h1        1 MOL      0.026675
    147 H66         5.4060    0.3570   -3.6730 h1        1 MOL      0.026675
    148 N13         4.5970    2.2370    0.1050 n         1 MOL      0.097596
    149 C50         3.8740    2.6290    1.3650 c3        1 MOL     -0.426636
    150 C51         4.7290    2.2030    2.5760 c         1 MOL      0.518716
    151 O21         4.6740    2.8360    3.6020 o         1 MOL     -0.551412
    152 C52         2.4780    1.8990    1.3220 c3        1 MOL      0.221222
    153 C53         1.7000    2.1250    0.0930 c3        1 MOL     -0.452107
    154 C54         0.3430    1.3610    0.1970 c         1 MOL      0.515519
    155 O22        -0.6390    1.9950   -0.2690 o         1 MOL     -0.604796
    156 O23         0.1990    0.1890    0.5260 o         1 MOL     -0.604796
    157 H67         4.2030    1.4610   -0.3950 hn        1 MOL     -0.066484
    158 H68         3.7020    3.6980    1.5090 h1        1 MOL      0.196856
    159 H69         1.8610    2.0550    2.2040 hc        1 MOL      0.019583
    160 H70         2.6870    0.8290    1.3810 hc        1 MOL      0.019583
    161 H71         2.1530    1.7870   -0.8320 hc        1 MOL      0.171526
    162 H72         1.3070    3.1410    0.1470 hc        1 MOL      0.171526
    163 N14         5.6920    1.3280    2.3320 n         1 MOL     -0.063606
    164 C55         6.7430    0.9550    3.2940 c3        1 MOL     -0.165314
    165 H73         6.8170   -0.1310    3.3470 h1        1 MOL      0.069677
    166 H74         7.6970    1.3680    2.9670 h1        1 MOL      0.069677
    167 H75         6.4930    1.3500    4.2780 h1        1 MOL      0.069677
    168 H76         5.6470    0.8110    1.4640 hn        1 MOL      0.072878
    169 Ca1        -2.1980   -0.1710   -0.3050 Ca        1 MOL      1.694490
    170 O24        -1.5580    0.3310    2.7230 oh        1 MOL     -0.808561
    171 H77        -1.6900    0.4930    3.6530 ho        1 MOL      0.400426
    172 H78        -0.6140    0.4270    2.5840 ho        1 MOL      0.400426
    173 O25        -3.9940   -0.8410    1.8730 oh        1 MOL     -0.808561
    174 H79        -4.5810   -0.7830    2.6230 ho        1 MOL      0.400426
    175 H80        -3.1300   -0.6620    2.2290 ho        1 MOL      0.400426
@<TRIPOS>BOND
     1    1    2 1   
     2    1    4 1   
     3    1    5 1   
     4    1    6 1   
     5    2    3 2   
     6    2    7 1   
     7    7    8 1   
     8    7   15 1   
     9    8    9 1   
    10    8   11 1   
    11    8   16 1   
    12    9   10 2   
    13    9   19 1   
    14   11   12 1   
    15   11   17 1   
    16   11   18 1   
    17   12   13 1   
    18   12   14 1   
    19   19   20 1   
    20   19   24 1   
    21   20   21 1   
    22   20   23 1   
    23   20   25 1   
    24   21   22 2   
    25   21   29 1   
    26   23   26 1   
    27   23   27 1   
    28   23   28 1   
    29   29   30 1   
    30   29   37 1   
    31   30   31 1   
    32   30   33 1   
    33   30   38 1   
    34   31   32 2   
    35   31   41 1   
    36   33   34 1   
    37   33   39 1   
    38   33   40 1   
    39   34   35 1   
    40   34   36 1   
    41   41   42 1   
    42   41   45 1   
    43   42   43 1   
    44   42   46 1   
    45   42   47 1   
    46   43   44 2   
    47   43   48 1   
    48   48   49 1   
    49   48   56 1   
    50   49   50 1   
    51   49   52 1   
    52   49   57 1   
    53   50   51 2   
    54   50   62 1   
    55   52   53 1   
    56   52   58 1   
    57   52   59 1   
    58   53   54 1   
    59   53   55 2   
    60   54   60 1   
    61   54   61 1   
    62   62   63 1   
    63   62   66 1   
    64   63   64 1   
    65   63   67 1   
    66   63   68 1   
    67   64   65 2   
    68   64   69 1   
    69   69   70 1   
    70   69   76 1   
    71   70   71 1   
    72   70   73 1   
    73   70   77 1   
    74   71   72 2   
    75   71   83 1   
    76   73   74 1   
    77   73   75 1   
    78   73   78 1   
    79   74   80 1   
    80   74   81 1   
    81   74   82 1   
    82   75   79 1   
    83   83   84 1   
    84   83   91 1   
    85   84   85 1   
    86   84   87 1   
    87   84   92 1   
    88   85   86 2   
    89   85  102 1   
    90   87   88 1   
    91   87   89 1   
    92   87   93 1   
    93   88   90 1   
    94   88   94 1   
    95   88   95 1   
    96   89   96 1   
    97   89   97 1   
    98   89   98 1   
    99   90   99 1   
   100   90  100 1   
   101   90  101 1   
   102  102  103 1   
   103  102  110 1   
   104  103  104 1   
   105  103  106 1   
   106  103  111 1   
   107  104  105 2   
   108  104  114 1   
   109  106  107 1   
   110  106  112 1   
   111  106  113 1   
   112  107  108 1   
   113  107  109 1   
   114  114  115 1   
   115  114  125 1   
   116  115  116 1   
   117  115  118 1   
   118  115  126 1   
   119  116  117 2   
   120  116  134 1   
   121  118  119 1   
   122  118  127 1   
   123  118  128 1   
   124  119  120 ar  
   125  119  121 ar  
   126  120  122 ar  
   127  120  129 1   
   128  121  123 ar  
   129  121  130 1   
   130  122  124 ar  
   131  122  131 1   
   132  123  124 ar  
   133  123  132 1   
   134  124  133 1   
   135  134  135 1   
   136  134  140 1   
   137  135  136 1   
   138  135  138 1   
   139  135  141 1   
   140  136  137 2   
   141  136  148 1   
   142  138  139 1   
   143  138  142 1   
   144  138  143 1   
   145  139  140 1   
   146  139  144 1   
   147  139  145 1   
   148  140  146 1   
   149  140  147 1   
   150  148  149 1   
   151  148  157 1   
   152  149  150 1   
   153  149  152 1   
   154  149  158 1   
   155  150  151 2   
   156  150  163 1   
   157  152  153 1   
   158  152  159 1   
   159  152  160 1   
   160  153  154 1   
   161  153  161 1   
   162  153  162 1   
   163  154  155 1   
   164  154  156 1   
   165  163  164 1   
   166  163  168 1   
   167  164  165 1   
   168  164  166 1   
   169  164  167 1   
   170  170  171 1   
   171  170  172 1   
   172  173  174 1   
   173  173  175 1   
@<TRIPOS>SUBSTRUCTURE
     1 MOL         1 TEMP              0 ****  ****    0 ROOT
