@<TRIPOS>MOLECULE
MOL
  189   185     1     0     0
SMALL
resp


@<TRIPOS>ATOM
      1 C1          0.4700    3.7630    4.8250 c3        1 MOL     -0.313173
      2 C2         -0.2920    3.3340    3.5350 c         1 MOL      0.649841
      3 O1          0.3190    3.6030    2.5280 o         1 MOL     -0.597807
      4 H1          0.3850    2.9770    5.5750 hc        1 MOL      0.081375
      5 H2          1.5220    3.9270    4.5890 hc        1 MOL      0.081375
      6 H3          0.0370    4.6850    5.2130 hc        1 MOL      0.081375
      7 N1         -1.4620    2.6540    3.5840 n         1 MOL     -0.572134
      8 C3         -2.0860    2.1160    2.3020 c3        1 MOL      0.124706
      9 C4         -2.5840    3.3310    1.4850 c         1 MOL      0.408290
     10 O2         -3.3360    4.1240    2.0540 o         1 MOL     -0.593598
     11 C5         -3.3150    1.2470    2.7040 c3        1 MOL     -0.178837
     12 C6         -3.8040    0.4250    1.5850 c         1 MOL      0.814395
     13 O3         -3.3130    0.5330    0.4220 o         1 MOL     -0.737940
     14 O4         -4.8160   -0.2640    1.8430 o         1 MOL     -0.737940
     15 H4         -1.9250    2.7140    4.4840 hn        1 MOL      0.328357
     16 H5         -1.3360    1.5570    1.7350 h1        1 MOL      0.039267
     17 H6         -4.1280    1.8500    3.1220 hc        1 MOL      0.055836
     18 H7         -3.0220    0.5450    3.4770 hc        1 MOL      0.055836
     19 N2         -2.0740    3.5810    0.3280 n         1 MOL     -0.018000
     20 C7         -2.3490    4.7920   -0.4690 c3        1 MOL      0.024879
     21 C8         -3.5550    4.7110   -1.3260 c         1 MOL      0.367624
     22 O5         -3.9890    5.7140   -1.8590 o         1 MOL     -0.538749
     23 C9         -1.1500    5.2290   -1.2440 c3        1 MOL     -0.295214
     24 C10        -0.1060    5.9630   -0.4420 c3        1 MOL      0.119116
     25 C11        -0.4600    7.3500    0.0130 c3        1 MOL     -0.047139
     26 C12         0.5480    7.9930    1.0090 c3        1 MOL     -0.174675
     27 N3          0.2760    7.5000    2.3880 n4        1 MOL     -0.234560
     28 H8         -1.3200    3.0220   -0.0350 hn        1 MOL      0.171953
     29 H9         -2.5550    5.6320    0.1960 h1        1 MOL      0.042234
     30 H10        -1.5210    5.8190   -2.0910 hc        1 MOL      0.111543
     31 H11        -0.5980    4.3690   -1.6110 hc        1 MOL      0.111543
     32 H12         0.7900    6.1440   -1.0320 hc        1 MOL      0.008944
     33 H13         0.0190    5.3410    0.4430 hc        1 MOL      0.008944
     34 H14        -1.4580    7.3890    0.4330 hc        1 MOL      0.060589
     35 H15        -0.5640    7.9640   -0.8760 hc        1 MOL      0.060589
     36 H16         0.3950    9.0710    0.9530 hx        1 MOL      0.135028
     37 H17         1.5920    7.8260    0.7320 hx        1 MOL      0.135028
     38 H18         0.7100    6.6240    2.6650 hn        1 MOL      0.298810
     39 H19         0.5690    8.1620    3.0900 hn        1 MOL      0.298810
     40 H20        -0.7050    7.4610    2.6080 hn        1 MOL      0.298810
     41 N4         -3.9660    3.4790   -1.7130 n         1 MOL     -0.155232
     42 C13        -5.0170    3.2040   -2.7290 c3        1 MOL     -0.083143
     43 C14        -6.1790    2.3630   -2.1690 c         1 MOL      0.379047
     44 O6         -7.1560    2.1090   -2.9050 o         1 MOL     -0.480549
     45 C15        -4.3930    2.6310   -4.0170 c3        1 MOL     -0.006658
     46 C16        -3.5680    1.3520   -3.7190 c         1 MOL      0.580953
     47 O7         -2.9790    0.6600   -4.6190 o         1 MOL     -0.657512
     48 O8         -3.4800    0.8940   -2.5380 o         1 MOL     -0.657512
     49 H21        -3.5510    2.6820   -1.2460 hn        1 MOL      0.122750
     50 H22        -5.4220    4.1510   -3.0750 h1        1 MOL      0.115733
     51 H23        -3.7940    3.2690   -4.6710 hc        1 MOL      0.027874
     52 H24        -5.2120    2.3390   -4.6670 hc        1 MOL      0.027874
     53 N5         -6.1990    2.1340   -0.8490 n         1 MOL     -0.216795
     54 C17        -7.2340    1.4470   -0.1340 c3        1 MOL     -0.096225
     55 C18        -7.5450    0.0360   -0.6680 c         1 MOL      0.409389
     56 O9         -8.7440   -0.1700   -0.8690 o         1 MOL     -0.585887
     57 H25        -5.3860    2.4680   -0.3520 hn        1 MOL      0.175745
     58 H26        -8.1070    2.0910   -0.2150 h1        1 MOL      0.083920
     59 H27        -6.9370    1.3960    0.9160 h1        1 MOL      0.083920
     60 N6         -6.6450   -0.7510   -1.0750 n         1 MOL     -0.151702
     61 C19        -6.7820   -2.0380   -1.8050 c3        1 MOL     -0.047678
     62 C20        -6.5510   -3.2480   -0.7610 c         1 MOL      0.465023
     63 O10        -6.4050   -4.3700   -1.2280 o         1 MOL     -0.481309
     64 C21        -5.8020   -2.0450   -3.0110 c3        1 MOL     -0.237918
     65 C22        -4.3600   -2.2310   -2.5190 c         1 MOL      0.825908
     66 O11        -3.4720   -2.4110   -3.3960 o         1 MOL     -0.702172
     67 O12        -3.9550   -2.2760   -1.3510 o         1 MOL     -0.702172
     68 H28        -5.6970   -0.4490   -0.8670 hn        1 MOL      0.309760
     69 H29        -7.7920   -2.0650   -2.2040 h1        1 MOL      0.121394
     70 H30        -5.7620   -1.0850   -3.5330 hc        1 MOL      0.088301
     71 H31        -5.9240   -2.8870   -3.6820 hc        1 MOL      0.088301
     72 N7         -6.6790   -2.9520    0.5540 n         1 MOL     -0.554197
     73 C23        -6.6120   -3.8270    1.6470 c3        1 MOL      0.262574
     74 C24        -5.2650   -4.2300    2.1510 c         1 MOL      0.309025
     75 O13        -5.0670   -5.1220    2.9980 o         1 MOL     -0.556490
     76 H32        -6.6620   -1.9690    0.7660 hn        1 MOL      0.313889
     77 H33        -7.0660   -4.7880    1.4240 h1        1 MOL      0.034135
     78 H34        -7.2680   -3.5580    2.4800 h1        1 MOL      0.034135
     79 N8         -4.2370   -3.7050    1.4470 n         1 MOL     -0.036993
     80 C25        -2.8520   -4.2740    1.4800 c3        1 MOL     -0.251401
     81 C26        -1.7790   -3.1530    1.5990 c         1 MOL      0.771624
     82 O14        -1.8870   -2.0710    0.9670 o         1 MOL     -0.793750
     83 C27        -2.6350   -5.2920    0.2880 c3        1 MOL      0.426960
     84 C28        -3.0330   -6.7060    0.7090 c3        1 MOL     -0.499184
     85 O15        -3.4640   -4.9280   -0.8520 oh        1 MOL     -0.570466
     86 H35        -4.4090   -3.0260    0.7280 hn        1 MOL      0.061478
     87 H36        -2.7330   -4.7040    2.4790 h1        1 MOL      0.116015
     88 H37        -1.5760   -5.2340   -0.0020 h1        1 MOL     -0.011841
     89 H38        -3.5660   -3.9720   -0.8990 ho        1 MOL      0.363560
     90 H39        -2.7750   -7.4130   -0.0810 hc        1 MOL      0.135495
     91 H40        -2.6090   -7.0710    1.6470 hc        1 MOL      0.135495
     92 H41        -4.1070   -6.8000    0.8490 hc        1 MOL      0.135495
     93 N9         -0.6660   -3.3750    2.3640 n         1 MOL     -0.646919
     94 C29         0.4740   -2.4470    2.3840 c3        1 MOL      0.251620
     95 C30         1.6890   -3.1980    1.8300 c         1 MOL      0.360950
     96 O16         1.7480   -4.4430    1.8670 o         1 MOL     -0.539506
     97 C31         0.6770   -1.9510    3.8260 c3        1 MOL      0.185137
     98 C32        -0.5640   -1.2560    4.3960 c3        1 MOL      0.244238
     99 C33         1.8330   -0.9230    3.9660 c3        1 MOL     -0.580772
    100 C34        -0.5540   -1.0530    5.9040 c3        1 MOL     -0.195874
    101 H42        -0.6190   -4.2080    2.9370 hn        1 MOL      0.309048
    102 H43         0.2540   -1.5400    1.8100 h1        1 MOL      0.045759
    103 H44         0.8520   -2.8570    4.3900 hc        1 MOL     -0.024761
    104 H45        -1.4210   -1.8850    4.1660 hc        1 MOL     -0.039961
    105 H46        -0.6690   -0.3080    3.8770 hc        1 MOL     -0.039961
    106 H47         2.7470   -1.4280    3.6580 hc        1 MOL      0.116987
    107 H48         1.6360   -0.1300    3.2530 hc        1 MOL      0.116987
    108 H49         1.8320   -0.5380    4.9830 hc        1 MOL      0.116987
    109 H50        -0.6520   -2.0680    6.3060 hc        1 MOL      0.033950
    110 H51         0.3370   -0.5860    6.3210 hc        1 MOL      0.033950
    111 H52        -1.4180   -0.4570    6.2010 hc        1 MOL      0.033950
    112 N10         2.5600   -2.4790    1.1530 n         1 MOL     -0.048586
    113 C35         3.6850   -2.9400    0.3530 c3        1 MOL     -0.028539
    114 C36         5.0860   -2.4670    0.8360 c         1 MOL      0.321070
    115 O17         5.1950   -1.7020    1.7970 o         1 MOL     -0.431930
    116 C37         3.4760   -2.3610   -1.0760 c3        1 MOL      0.224902
    117 C38         2.3060   -2.8600   -1.9000 c3        1 MOL     -0.709255
    118 O18         3.2610   -0.9640   -1.0140 oh        1 MOL     -0.302939
    119 H53         2.3720   -1.5010    0.9620 hn        1 MOL      0.186467
    120 H54         3.6190   -4.0210    0.3070 h1        1 MOL      0.072578
    121 H55         4.3420   -2.5760   -1.7010 h1        1 MOL      0.025152
    122 H56         2.3180   -0.7990   -0.9250 ho        1 MOL      0.269108
    123 H57         2.3130   -2.2260   -2.7850 hc        1 MOL      0.203591
    124 H58         2.3800   -3.9360   -2.0620 hc        1 MOL      0.203591
    125 H59         1.4020   -2.7430   -1.3070 hc        1 MOL      0.203591
    126 N11         6.1590   -2.9470    0.2130 n         1 MOL     -0.276630
    127 C39         7.4800   -2.3190    0.4680 c3        1 MOL      0.074431
    128 C40         7.5920   -0.8650    0.0930 c         1 MOL      0.130359
    129 O19         8.1770   -0.0670    0.7270 o         1 MOL     -0.401589
    130 C41         8.5910   -3.0680   -0.2780 c3        1 MOL      0.089931
    131 C42         8.7580   -4.4480    0.3810 c3        1 MOL     -0.397111
    132 O20         8.2190   -3.3920   -1.5870 oh        1 MOL     -0.670550
    133 H60         5.9470   -3.6810   -0.4470 hn        1 MOL      0.259569
    134 H61         7.6950   -2.3400    1.5370 h1        1 MOL      0.140109
    135 H62         9.5060   -2.4620   -0.2660 h1        1 MOL      0.106882
    136 H63         8.8490   -3.9840   -2.0140 ho        1 MOL      0.455135
    137 H64         8.8030   -4.3400    1.4590 hc        1 MOL      0.122615
    138 H65         7.9130   -5.1270    0.2400 hc        1 MOL      0.122615
    139 H66         9.6680   -4.8750   -0.0400 hc        1 MOL      0.122615
    140 N12         7.1330   -0.5070   -1.0830 n         1 MOL     -0.147177
    141 C43         6.9710    0.9010   -1.5980 c3        1 MOL      0.098924
    142 C44         6.2040    1.8090   -0.6050 c         1 MOL      0.248099
    143 O21         6.7880    2.8260   -0.1460 o         1 MOL     -0.477893
    144 C45         6.1480    0.9330   -2.9040 c3        1 MOL      0.092085
    145 C46         6.6850   -0.0140   -4.0080 c3        1 MOL     -0.298759
    146 C47         8.0110    0.3360   -4.6070 c3        1 MOL      0.143364
    147 C48         9.1540   -0.2890   -3.9010 c3        1 MOL      0.014490
    148 N13        10.4440    0.0970   -4.6250 n4        1 MOL     -0.388356
    149 H67         6.7320   -1.2450   -1.6470 hn        1 MOL      0.250244
    150 H68         7.8960    1.4290   -1.8150 h1        1 MOL      0.019388
    151 H69         6.1410    1.9710   -3.2300 hc        1 MOL      0.024662
    152 H70         5.1820    0.5050   -2.6260 hc        1 MOL      0.024662
    153 H71         6.0270    0.2350   -4.8490 hc        1 MOL      0.077532
    154 H72         6.6380   -1.0230   -3.6070 hc        1 MOL      0.077532
    155 H73         8.1940    1.3940   -4.7730 hc        1 MOL      0.012963
    156 H74         8.0170   -0.0130   -5.6360 hc        1 MOL      0.012963
    157 H75         9.0940   -1.3840   -3.8570 hx        1 MOL      0.080311
    158 H76         9.1760    0.0740   -2.8780 hx        1 MOL      0.080311
    159 H77        10.6400    1.0840   -4.4850 hn        1 MOL      0.300084
    160 H78        11.2910   -0.3910   -4.3520 hn        1 MOL      0.300084
    161 H79        10.2790   -0.1790   -5.5830 hn        1 MOL      0.300084
    162 N14         5.0330    1.3850   -0.1450 n         1 MOL      0.175758
    163 C49         4.1930    2.2790    0.7210 c3        1 MOL     -0.224037
    164 C50         4.7470    2.5000    2.1320 c         1 MOL      0.427242
    165 O22         4.6420    3.6210    2.6510 o         1 MOL     -0.528220
    166 C51         2.8480    1.6240    0.8630 c3        1 MOL     -0.033690
    167 C52         2.0780    1.9020   -0.3940 c3        1 MOL      0.015889
    168 C53         0.7170    1.0970   -0.4650 c         1 MOL      0.744381
    169 O23        -0.3550    1.5880   -0.9520 o         1 MOL     -0.746196
    170 O24         0.7810   -0.1330   -0.1620 o         1 MOL     -0.746196
    171 H80         4.6080    0.5350   -0.4980 hn        1 MOL     -0.173212
    172 H81         4.0790    3.2980    0.3480 h1        1 MOL      0.123340
    173 H82         2.3290    2.0100    1.7450 hc        1 MOL      0.067036
    174 H83         2.9930    0.5540    0.9720 hc        1 MOL      0.067036
    175 H84         2.6620    1.5420   -1.2510 hc        1 MOL     -0.025872
    176 H85         1.9100    2.9500   -0.6310 hc        1 MOL     -0.025872
    177 N15         5.5220    1.5480    2.6890 n         1 MOL     -0.135342
    178 C54         6.1480    1.6830    3.9800 c3        1 MOL     -0.263061
    179 H86         7.2230    1.5420    3.8770 h1        1 MOL      0.104379
    180 H87         5.9490    2.6780    4.3790 h1        1 MOL      0.104379
    181 H88         5.7460    0.9320    4.6590 h1        1 MOL      0.104379
    182 H89         5.7670    0.7080    2.1880 hn        1 MOL      0.223467
    183 Ca1        -1.8450   -0.6840   -1.2060 Ca        1 MOL      1.780980
    184 O25        -0.6820   -0.5910   -3.7700 oh        1 MOL     -0.878658
    185 H90        -0.1470   -0.9780   -4.4620 ho        1 MOL      0.405461
    186 H91        -1.4730   -0.2890   -4.2210 ho        1 MOL      0.405461
    187 O26        -1.2000   -3.2220   -1.8840 oh        1 MOL     -0.878658
    188 H92        -1.9910   -3.5840   -2.2830 ho        1 MOL      0.405461
    189 H93        -0.4820   -3.6030   -2.3820 ho        1 MOL      0.405461
@<TRIPOS>BOND
     1    1    2 1   
     2    1    4 1   
     3    1    5 1   
     4    1    6 1   
     5    2    3 2   
     6    2    7 1   
     7    7    8 1   
     8    7   15 1   
     9    8    9 1   
    10    8   11 1   
    11    8   16 1   
    12    9   10 2   
    13    9   19 1   
    14   11   12 1   
    15   11   17 1   
    16   11   18 1   
    17   12   13 1   
    18   12   14 1   
    19   19   20 1   
    20   19   28 1   
    21   20   21 1   
    22   20   23 1   
    23   20   29 1   
    24   21   22 2   
    25   21   41 1   
    26   23   24 1   
    27   23   30 1   
    28   23   31 1   
    29   24   25 1   
    30   24   32 1   
    31   24   33 1   
    32   25   26 1   
    33   25   34 1   
    34   25   35 1   
    35   26   27 1   
    36   26   36 1   
    37   26   37 1   
    38   27   38 1   
    39   27   39 1   
    40   27   40 1   
    41   41   42 1   
    42   41   49 1   
    43   42   43 1   
    44   42   45 1   
    45   42   50 1   
    46   43   44 2   
    47   43   53 1   
    48   45   46 1   
    49   45   51 1   
    50   45   52 1   
    51   46   47 1   
    52   46   48 1   
    53   53   54 1   
    54   53   57 1   
    55   54   55 1   
    56   54   58 1   
    57   54   59 1   
    58   55   56 2   
    59   55   60 1   
    60   60   61 1   
    61   60   68 1   
    62   61   62 1   
    63   61   64 1   
    64   61   69 1   
    65   62   63 2   
    66   62   72 1   
    67   64   65 1   
    68   64   70 1   
    69   64   71 1   
    70   65   66 1   
    71   65   67 1   
    72   72   73 1   
    73   72   76 1   
    74   73   74 1   
    75   73   77 1   
    76   73   78 1   
    77   74   75 2   
    78   74   79 1   
    79   79   80 1   
    80   79   86 1   
    81   80   81 1   
    82   80   83 1   
    83   80   87 1   
    84   81   82 2   
    85   81   93 1   
    86   83   84 1   
    87   83   85 1   
    88   83   88 1   
    89   84   90 1   
    90   84   91 1   
    91   84   92 1   
    92   85   89 1   
    93   93   94 1   
    94   93  101 1   
    95   94   95 1   
    96   94   97 1   
    97   94  102 1   
    98   95   96 2   
    99   95  112 1   
   100   97   98 1   
   101   97   99 1   
   102   97  103 1   
   103   98  100 1   
   104   98  104 1   
   105   98  105 1   
   106   99  106 1   
   107   99  107 1   
   108   99  108 1   
   109  100  109 1   
   110  100  110 1   
   111  100  111 1   
   112  112  113 1   
   113  112  119 1   
   114  113  114 1   
   115  113  116 1   
   116  113  120 1   
   117  114  115 2   
   118  114  126 1   
   119  116  117 1   
   120  116  118 1   
   121  116  121 1   
   122  117  123 1   
   123  117  124 1   
   124  117  125 1   
   125  118  122 1   
   126  126  127 1   
   127  126  133 1   
   128  127  128 1   
   129  127  130 1   
   130  127  134 1   
   131  128  129 2   
   132  128  140 1   
   133  130  131 1   
   134  130  132 1   
   135  130  135 1   
   136  131  137 1   
   137  131  138 1   
   138  131  139 1   
   139  132  136 1   
   140  140  141 1   
   141  140  149 1   
   142  141  142 1   
   143  141  144 1   
   144  141  150 1   
   145  142  143 2   
   146  142  162 1   
   147  144  145 1   
   148  144  151 1   
   149  144  152 1   
   150  145  146 1   
   151  145  153 1   
   152  145  154 1   
   153  146  147 1   
   154  146  155 1   
   155  146  156 1   
   156  147  148 1   
   157  147  157 1   
   158  147  158 1   
   159  148  159 1   
   160  148  160 1   
   161  148  161 1   
   162  162  163 1   
   163  162  171 1   
   164  163  164 1   
   165  163  166 1   
   166  163  172 1   
   167  164  165 2   
   168  164  177 1   
   169  166  167 1   
   170  166  173 1   
   171  166  174 1   
   172  167  168 1   
   173  167  175 1   
   174  167  176 1   
   175  168  169 1   
   176  168  170 1   
   177  177  178 1   
   178  177  182 1   
   179  178  179 1   
   180  178  180 1   
   181  178  181 1   
   182  184  185 1   
   183  184  186 1   
   184  187  188 1   
   185  187  189 1   
@<TRIPOS>SUBSTRUCTURE
     1 MOL         1 TEMP              0 ****  ****    0 ROOT
