@<TRIPOS>MOLECULE
MOL
  182   178     1     0     0
SMALL
resp


@<TRIPOS>ATOM
      1 C1          2.7290    2.4660    4.8490 c3        1 MOL     -0.457349
      2 C2          1.9030    2.4050    3.4940 c         1 MOL      0.405074
      3 O1          2.5350    2.1380    2.4440 o         1 MOL     -0.378835
      4 H1          2.2670    3.1860    5.5250 hc        1 MOL      0.126073
      5 H2          2.7350    1.4820    5.3170 hc        1 MOL      0.126073
      6 H3          3.7540    2.7740    4.6380 hc        1 MOL      0.126073
      7 N1          0.5560    2.4510    3.6180 n         1 MOL     -0.387332
      8 C3         -0.2790    2.3170    2.4080 c3        1 MOL      0.143996
      9 C4         -0.5750    3.6530    1.7000 c         1 MOL      0.204964
     10 O2         -1.5020    4.3920    2.1440 o         1 MOL     -0.429910
     11 C5         -1.5430    1.5450    2.7520 c3        1 MOL     -0.281636
     12 C6         -2.4570    1.3430    1.5970 c         1 MOL      0.952423
     13 O3         -2.0840    1.6420    0.4160 o         1 MOL     -0.835932
     14 O4         -3.6080    0.8740    1.7880 o         1 MOL     -0.835932
     15 H4          0.1680    2.6710    4.5280 hn        1 MOL      0.316449
     16 H5          0.2330    1.6050    1.7560 h1        1 MOL      0.003907
     17 H6         -2.0390    2.0410    3.5820 hc        1 MOL      0.079248
     18 H7         -1.1790    0.5760    3.0980 hc        1 MOL      0.079248
     19 N2          0.3090    4.0400    0.7420 n         1 MOL     -0.164160
     20 C7          0.4440    5.3780    0.1640 c3        1 MOL      0.004087
     21 C8         -0.4810    5.8530   -0.8130 c         1 MOL      0.469904
     22 O5         -0.6100    7.0710   -1.0960 o         1 MOL     -0.582971
     23 C9          1.9200    5.4540   -0.2730 c3        1 MOL      0.073722
     24 C10         2.8350    5.6600    0.9110 c3        1 MOL     -0.045439
     25 C11         4.3100    5.9550    0.5070 c3        1 MOL      0.066357
     26 C12         5.0270    6.6870    1.6600 c3        1 MOL     -0.211514
     27 N3          5.0320    5.9040    2.9350 n4        1 MOL     -0.161050
     28 H8          0.9170    3.3160    0.3890 hn        1 MOL      0.283859
     29 H9          0.4010    6.0540    1.0220 h1        1 MOL      0.066743
     30 H10         1.9760    6.3670   -0.8720 hc        1 MOL     -0.002060
     31 H11         2.1770    4.6060   -0.9070 hc        1 MOL     -0.002060
     32 H12         2.8320    4.6890    1.4040 hc        1 MOL      0.002527
     33 H13         2.4490    6.5470    1.4210 hc        1 MOL      0.002527
     34 H14         4.4150    6.6020   -0.3740 hc        1 MOL      0.041181
     35 H15         4.7890    5.0200    0.2030 hc        1 MOL      0.041181
     36 H16         4.4980    7.6260    1.8450 hx        1 MOL      0.143213
     37 H17         6.0740    6.8260    1.3940 hx        1 MOL      0.143213
     38 H18         5.2560    4.9250    2.8880 hn        1 MOL      0.278862
     39 H19         5.6700    6.3840    3.5570 hn        1 MOL      0.278862
     40 H20         4.0750    5.9700    3.2470 hn        1 MOL      0.278862
     41 N4         -1.3820    4.9760   -1.2300 n         1 MOL     -0.199106
     42 C13        -2.5700    5.2650   -1.9730 c3        1 MOL      0.056336
     43 C14        -3.8320    4.7500   -1.2040 c         1 MOL      0.349492
     44 O6         -4.9790    4.8520   -1.6280 o         1 MOL     -0.509607
     45 C15        -2.3270    4.8220   -3.3740 c3        1 MOL     -0.363306
     46 C16        -2.1600    3.2970   -3.5290 c         1 MOL      0.862771
     47 O7         -2.2430    2.8540   -4.6930 o         1 MOL     -0.719147
     48 O8         -1.9110    2.5970   -2.5180 o         1 MOL     -0.719147
     49 H21        -1.2560    3.9970   -1.0340 hn        1 MOL      0.157233
     50 H22        -2.8040    6.3260   -1.9420 h1        1 MOL      0.129804
     51 H23        -1.4160    5.3130   -3.6940 hc        1 MOL      0.099538
     52 H24        -3.1900    5.0890   -3.9810 hc        1 MOL      0.099538
     53 N5         -3.7770    4.4270    0.1270 n         1 MOL     -0.135240
     54 C17        -4.9460    4.0800    1.0520 c3        1 MOL     -0.136575
     55 C18        -5.8590    2.9680    0.5170 c         1 MOL      0.462387
     56 O9         -7.0530    3.0070    0.7740 o         1 MOL     -0.568728
     57 H25        -2.8470    4.2870    0.4990 hn        1 MOL      0.026215
     58 H26        -5.4700    5.0070    1.2730 h1        1 MOL      0.118116
     59 H27        -4.5050    3.7250    1.9830 h1        1 MOL      0.118116
     60 N6         -5.4380    2.0650   -0.3610 n         1 MOL     -0.036085
     61 C19        -6.2720    0.9860   -0.9910 c3        1 MOL     -0.348721
     62 C20        -6.7120   -0.1890   -0.0380 c         1 MOL      0.408428
     63 O10        -7.5540   -1.0170   -0.3600 o         1 MOL     -0.483674
     64 C21        -5.6740    0.4700   -2.3030 c3        1 MOL      0.087744
     65 C22        -4.6690   -0.6450   -2.1240 c         1 MOL      0.403573
     66 N7         -4.7660   -1.5850   -3.0700 n         1 MOL     -0.554682
     67 O11        -3.7120   -0.5510   -1.3450 o         1 MOL     -0.536351
     68 H28        -4.4370    1.9140   -0.4150 hn        1 MOL      0.188950
     69 H29        -7.2030    1.4680   -1.2960 h1        1 MOL      0.193464
     70 H30        -5.1540    1.2910   -2.7920 hc        1 MOL      0.036812
     71 H31        -6.4590    0.2430   -3.0290 hc        1 MOL      0.036812
     72 H32        -5.4230   -1.4590   -3.8250 hn        1 MOL      0.308134
     73 H33        -4.0120   -2.2470   -3.1240 hn        1 MOL      0.308134
     74 N8         -6.1210   -0.3070    1.1300 n         1 MOL     -0.166590
     75 C23        -6.2730   -1.2910    2.1490 c3        1 MOL     -0.236551
     76 C24        -5.1310   -2.2570    2.2810 c         1 MOL      0.733270
     77 O12        -5.1550   -3.1660    3.0740 o         1 MOL     -0.610336
     78 H34        -5.4550    0.3990    1.4180 hn        1 MOL      0.282585
     79 H35        -7.2620   -1.7260    1.9830 h1        1 MOL      0.112531
     80 H36        -6.2900   -0.8530    3.1480 h1        1 MOL      0.112531
     81 N9         -4.0880   -2.1540    1.4370 n         1 MOL     -0.587016
     82 C25        -3.0350   -3.1550    1.2530 c3        1 MOL      0.145026
     83 C26        -1.6320   -2.5630    1.2610 c         1 MOL      0.471584
     84 O13        -1.3450   -1.6920    0.4770 o         1 MOL     -0.613777
     85 C27        -3.3430   -3.9170   -0.0860 c3        1 MOL     -0.022613
     86 C28        -4.6230   -4.7230   -0.0170 ca        1 MOL      0.041563
     87 C29        -5.8260   -4.1470   -0.5240 ca        1 MOL     -0.188298
     88 C30        -4.6740   -6.0470    0.4420 ca        1 MOL     -0.188298
     89 C31        -7.0290   -4.8190   -0.3050 ca        1 MOL     -0.217226
     90 C32        -5.8840   -6.7630    0.5460 ca        1 MOL     -0.217226
     91 C33        -7.0980   -6.1520    0.1640 ca        1 MOL      0.337351
     92 O14        -8.2780   -6.8480    0.2050 oh        1 MOL     -0.489804
     93 H37        -3.9580   -1.2730    0.9640 hn        1 MOL      0.394469
     94 H38        -3.1030   -3.9400    2.0020 h1        1 MOL      0.080206
     95 H39        -2.5030   -4.6030   -0.1500 hc        1 MOL      0.011304
     96 H40        -3.3160   -3.1810   -0.8930 hc        1 MOL      0.011304
     97 H41        -5.8140   -3.0900   -0.7500 ha        1 MOL      0.119354
     98 H42        -3.7890   -6.5190    0.8360 ha        1 MOL      0.119354
     99 H43        -7.9400   -4.3030   -0.5880 ha        1 MOL      0.133924
    100 H44        -5.8920   -7.7350    1.0220 ha        1 MOL      0.133924
    101 H45        -8.1750   -7.7570    0.4920 ho        1 MOL      0.357034
    102 N10        -0.6950   -3.1690    2.0040 n         1 MOL     -0.447528
    103 C34         0.7090   -2.7910    1.9010 c3        1 MOL      0.179617
    104 C35         1.4760   -3.7190    1.0220 c         1 MOL      0.393536
    105 O15         1.7080   -4.9280    1.3550 o         1 MOL     -0.529522
    106 C36         1.3720   -2.6340    3.3300 c3        1 MOL      0.254350
    107 C37         0.5950   -1.6870    4.3240 c3        1 MOL      0.134469
    108 C38         2.8780   -2.2380    3.2820 c3        1 MOL     -0.466901
    109 C39         0.9980   -1.7900    5.8280 c3        1 MOL     -0.216823
    110 H46        -1.0810   -3.8420    2.6450 hn        1 MOL      0.260901
    111 H47         0.8080   -1.7830    1.4870 h1        1 MOL      0.054171
    112 H48         1.2950   -3.6480    3.7380 hc        1 MOL     -0.054347
    113 H49        -0.4650   -1.9340    4.2660 hc        1 MOL     -0.038806
    114 H50         0.7240   -0.6500    4.0140 hc        1 MOL     -0.038806
    115 H51         3.4130   -2.3360    4.2180 hc        1 MOL      0.117656
    116 H52         3.4120   -2.8210    2.5320 hc        1 MOL      0.117656
    117 H53         2.8580   -1.2480    2.8300 hc        1 MOL      0.117656
    118 H54         0.6130   -2.6740    6.3340 hc        1 MOL      0.054171
    119 H55         2.0680   -1.6290    5.9790 hc        1 MOL      0.054171
    120 H56         0.4770   -0.9510    6.2700 hc        1 MOL      0.054171
    121 N11         1.8470   -3.2570   -0.2060 n         1 MOL     -0.226652
    122 C40         2.8870   -3.9000   -1.0690 c3        1 MOL     -0.206635
    123 C41         4.3180   -3.6830   -0.4790 c         1 MOL      0.545325
    124 O16         4.6980   -2.7640    0.2180 o         1 MOL     -0.435612
    125 C42         2.8810   -3.3110   -2.4680 c3        1 MOL      0.072556
    126 O17         3.2730   -1.9620   -2.4260 oh        1 MOL     -0.634273
    127 H57         1.5780   -2.3480   -0.5430 hn        1 MOL      0.295693
    128 H58         2.6600   -4.9700   -1.0780 h1        1 MOL      0.098425
    129 H59         1.8490   -3.3190   -2.8260 h1        1 MOL      0.065287
    130 H60         3.4770   -4.0050   -3.0470 h1        1 MOL      0.065287
    131 H61         2.6270   -1.3990   -1.9800 ho        1 MOL      0.498617
    132 N12         5.2060   -4.6350   -0.8800 n         1 MOL     -0.413166
    133 C43         6.5950   -4.5940   -0.5720 c3        1 MOL      0.007434
    134 C44         7.3540   -3.4120   -1.2520 c         1 MOL      0.617717
    135 O18         8.3360   -2.9870   -0.6400 o         1 MOL     -0.543353
    136 C45         7.3060   -5.9120   -0.9660 c3        1 MOL     -0.424028
    137 H62         4.9290   -5.3980   -1.4780 hn        1 MOL      0.294584
    138 H63         6.7000   -4.3650    0.4800 h1        1 MOL      0.139881
    139 H64         6.9210   -6.3730   -1.8790 hc        1 MOL      0.132938
    140 H65         8.3780   -5.7330   -1.0020 hc        1 MOL      0.132938
    141 H66         7.1700   -6.6260   -0.1490 hc        1 MOL      0.132938
    142 N13         6.9540   -2.8280   -2.4140 n         1 MOL     -0.603370
    143 C46         7.4710   -1.5650   -2.9690 c3        1 MOL      0.246747
    144 C47         7.1610   -0.3720   -2.0270 c         1 MOL      0.380426
    145 O19         7.9170    0.5640   -2.0360 o         1 MOL     -0.524805
    146 C48         6.8250   -1.2550   -4.3920 c3        1 MOL     -0.257830
    147 H67         6.0910   -3.1470   -2.8310 hn        1 MOL      0.339377
    148 H68         8.5480   -1.5920   -3.0940 h1        1 MOL      0.052974
    149 H69         7.4540   -0.5870   -4.9840 hc        1 MOL      0.073188
    150 H70         6.5970   -2.2110   -4.8580 hc        1 MOL      0.073188
    151 H71         5.8940   -0.6760   -4.3200 hc        1 MOL      0.073188
    152 N14         6.0320   -0.4810   -1.3270 n         1 MOL      0.051994
    153 C49         5.6120    0.5490   -0.3330 c3        1 MOL     -0.213985
    154 C50         6.4770    0.3750    0.9450 c         1 MOL      0.474818
    155 O20         6.9140    1.3600    1.5330 o         1 MOL     -0.546087
    156 C51         4.1300    0.4790   -0.0150 c3        1 MOL      0.356293
    157 C52         3.3340    1.1770   -1.0590 c3        1 MOL     -0.267995
    158 C53         1.8640    0.7140   -1.0520 c         1 MOL      0.850783
    159 O21         0.9730    1.6110   -1.1090 o         1 MOL     -0.778552
    160 O22         1.4890   -0.4950   -1.0660 o         1 MOL     -0.778552
    161 H72         5.4300   -1.2600   -1.5380 hn        1 MOL     -0.012788
    162 H73         5.8370    1.5000   -0.8120 h1        1 MOL      0.095870
    163 H74         3.9380    0.9860    0.9370 hc        1 MOL     -0.125032
    164 H75         3.6680   -0.4950    0.1160 hc        1 MOL     -0.125032
    165 H76         3.7710    0.8930   -2.0130 hc        1 MOL      0.037776
    166 H77         3.4160    2.2260   -0.7820 hc        1 MOL      0.037776
    167 N15         6.8140   -0.8460    1.4480 n         1 MOL     -0.148174
    168 C54         7.7590   -1.0960    2.5410 c3        1 MOL     -0.266853
    169 H78         7.5390   -0.4240    3.3710 h1        1 MOL      0.112127
    170 H79         7.6630   -2.1280    2.8750 h1        1 MOL      0.112127
    171 H80         8.7750   -0.9190    2.1910 h1        1 MOL      0.112127
    172 H81         6.4780   -1.6110    0.8830 hn        1 MOL      0.131581
    173 Ca1        -1.2050    0.1950   -1.6010 Ca        1 MOL      1.808356
    174 O23         0.4790    0.3330   -3.9610 oh        1 MOL     -0.872684
    175 H82         1.2500   -0.1470   -4.2670 ho        1 MOL      0.411240
    176 H83         0.4290    1.0920   -4.5390 ho        1 MOL      0.411240
    177 O24        -1.3810   -2.4760   -2.5260 oh        1 MOL     -0.872684
    178 H84        -1.9750   -2.5570   -3.2720 ho        1 MOL      0.411240
    179 H85        -0.8990   -3.3010   -2.5090 ho        1 MOL      0.411240
    180 O25        -2.6150    0.2750   -3.9960 oh        1 MOL     -0.872684
    181 H86        -2.4270    1.1840   -4.2170 ho        1 MOL      0.411240
    182 H87        -2.9330   -0.1100   -4.8190 ho        1 MOL      0.411240
@<TRIPOS>BOND
     1    1    2 1   
     2    1    4 1   
     3    1    5 1   
     4    1    6 1   
     5    2    3 2   
     6    2    7 1   
     7    7    8 1   
     8    7   15 1   
     9    8    9 1   
    10    8   11 1   
    11    8   16 1   
    12    9   10 2   
    13    9   19 1   
    14   11   12 1   
    15   11   17 1   
    16   11   18 1   
    17   12   13 1   
    18   12   14 1   
    19   19   20 1   
    20   19   28 1   
    21   20   21 1   
    22   20   23 1   
    23   20   29 1   
    24   21   22 2   
    25   21   41 1   
    26   23   24 1   
    27   23   30 1   
    28   23   31 1   
    29   24   25 1   
    30   24   32 1   
    31   24   33 1   
    32   25   26 1   
    33   25   34 1   
    34   25   35 1   
    35   26   27 1   
    36   26   36 1   
    37   26   37 1   
    38   27   38 1   
    39   27   39 1   
    40   27   40 1   
    41   41   42 1   
    42   41   49 1   
    43   42   43 1   
    44   42   45 1   
    45   42   50 1   
    46   43   44 2   
    47   43   53 1   
    48   45   46 1   
    49   45   51 1   
    50   45   52 1   
    51   46   47 1   
    52   46   48 1   
    53   53   54 1   
    54   53   57 1   
    55   54   55 1   
    56   54   58 1   
    57   54   59 1   
    58   55   56 2   
    59   55   60 1   
    60   60   61 1   
    61   60   68 1   
    62   61   62 1   
    63   61   64 1   
    64   61   69 1   
    65   62   63 2   
    66   62   74 1   
    67   64   65 1   
    68   64   70 1   
    69   64   71 1   
    70   65   66 1   
    71   65   67 2   
    72   66   72 1   
    73   66   73 1   
    74   74   75 1   
    75   74   78 1   
    76   75   76 1   
    77   75   79 1   
    78   75   80 1   
    79   76   77 2   
    80   76   81 1   
    81   81   82 1   
    82   81   93 1   
    83   82   83 1   
    84   82   85 1   
    85   82   94 1   
    86   83   84 2   
    87   83  102 1   
    88   85   86 1   
    89   85   95 1   
    90   85   96 1   
    91   86   87 ar  
    92   86   88 ar  
    93   87   89 ar  
    94   87   97 1   
    95   88   90 ar  
    96   88   98 1   
    97   89   91 ar  
    98   89   99 1   
    99   90   91 ar  
   100   90  100 1   
   101   91   92 1   
   102   92  101 1   
   103  102  103 1   
   104  102  110 1   
   105  103  104 1   
   106  103  106 1   
   107  103  111 1   
   108  104  105 2   
   109  104  121 1   
   110  106  107 1   
   111  106  108 1   
   112  106  112 1   
   113  107  109 1   
   114  107  113 1   
   115  107  114 1   
   116  108  115 1   
   117  108  116 1   
   118  108  117 1   
   119  109  118 1   
   120  109  119 1   
   121  109  120 1   
   122  121  122 1   
   123  121  127 1   
   124  122  123 1   
   125  122  125 1   
   126  122  128 1   
   127  123  124 2   
   128  123  132 1   
   129  125  126 1   
   130  125  129 1   
   131  125  130 1   
   132  126  131 1   
   133  132  133 1   
   134  132  137 1   
   135  133  134 1   
   136  133  136 1   
   137  133  138 1   
   138  134  135 2   
   139  134  142 1   
   140  136  139 1   
   141  136  140 1   
   142  136  141 1   
   143  142  143 1   
   144  142  147 1   
   145  143  144 1   
   146  143  146 1   
   147  143  148 1   
   148  144  145 2   
   149  144  152 1   
   150  146  149 1   
   151  146  150 1   
   152  146  151 1   
   153  152  153 1   
   154  152  161 1   
   155  153  154 1   
   156  153  156 1   
   157  153  162 1   
   158  154  155 2   
   159  154  167 1   
   160  156  157 1   
   161  156  163 1   
   162  156  164 1   
   163  157  158 1   
   164  157  165 1   
   165  157  166 1   
   166  158  159 1   
   167  158  160 1   
   168  167  168 1   
   169  167  172 1   
   170  168  169 1   
   171  168  170 1   
   172  168  171 1   
   173  174  175 1   
   174  174  176 1   
   175  177  178 1   
   176  177  179 1   
   177  180  181 1   
   178  180  182 1   
@<TRIPOS>SUBSTRUCTURE
     1 MOL         1 TEMP              0 ****  ****    0 ROOT
