@<TRIPOS>MOLECULE
MOL
  189   185     1     0     0
SMALL
resp


@<TRIPOS>ATOM
      1 C1         -0.6560    1.2120    6.2330 c3        1 MOL     -0.250506
      2 C2         -0.8800    1.2020    4.7150 c         1 MOL      0.685079
      3 O1          0.0780    1.2390    3.9120 o         1 MOL     -0.641072
      4 H1         -1.4310    1.8120    6.7100 hc        1 MOL      0.059588
      5 H2         -0.7000    0.1920    6.6150 hc        1 MOL      0.059588
      6 H3          0.3220    1.6410    6.4530 hc        1 MOL      0.059588
      7 N1         -2.1070    1.0790    4.3740 n         1 MOL     -0.583509
      8 C3         -2.5220    1.0970    2.9120 c3        1 MOL      0.254949
      9 C4         -2.8480    2.5250    2.3820 c         1 MOL      0.492572
     10 O2         -3.9080    3.1560    2.6150 o         1 MOL     -0.546568
     11 C5         -3.7730    0.2720    2.7910 c3        1 MOL     -0.508447
     12 C6         -4.2790    0.1250    1.3290 c         1 MOL      0.898699
     13 O3         -3.5630    0.3740    0.3540 o         1 MOL     -0.679902
     14 O4         -5.4090   -0.4030    1.2590 o         1 MOL     -0.679902
     15 H4         -2.7980    0.9780    5.1030 hn        1 MOL      0.342191
     16 H5         -1.6860    0.7170    2.3160 h1        1 MOL      0.027514
     17 H6         -4.5470    0.8220    3.3220 hc        1 MOL      0.121449
     18 H7         -3.4570   -0.7160    3.0990 hc        1 MOL      0.121449
     19 N2         -1.9210    3.0650    1.6010 n         1 MOL     -0.469623
     20 C7         -1.9040    4.4860    1.1950 c3        1 MOL      0.057664
     21 C8         -2.6110    4.9200   -0.0640 c         1 MOL      0.460946
     22 O5         -2.9480    6.0880   -0.2620 o         1 MOL     -0.588265
     23 C9         -0.4830    5.0180    1.3550 c3        1 MOL     -0.113436
     24 C10        -0.2210    6.5330    1.2140 c3        1 MOL     -0.091596
     25 C11        -0.9250    7.3950    2.1960 c3        1 MOL      0.011022
     26 C12        -0.3770    8.8450    2.2220 c3        1 MOL      0.054159
     27 N3         -0.8010    9.6310    1.0660 n4        1 MOL     -0.431305
     28 H8         -1.2540    2.5120    1.0730 hn        1 MOL      0.285603
     29 H9         -2.4080    5.0700    1.9710 h1        1 MOL      0.078860
     30 H10         0.1520    4.4550    0.6750 hc        1 MOL      0.096838
     31 H11        -0.0990    4.8220    2.3550 hc        1 MOL      0.096838
     32 H12        -0.4300    6.9060    0.2140 hc        1 MOL      0.021386
     33 H13         0.8520    6.6660    1.3160 hc        1 MOL      0.021386
     34 H14        -0.6940    7.0190    3.1990 hc        1 MOL      0.044058
     35 H15        -2.0090    7.2860    2.1480 hc        1 MOL      0.044058
     36 H16         0.7070    8.8000    2.3080 hx        1 MOL      0.071606
     37 H17        -0.6980    9.2790    3.1610 hx        1 MOL      0.071606
     38 H18        -0.7340    9.1160    0.1990 hn        1 MOL      0.349037
     39 H19        -1.7840    9.8470    1.1680 hn        1 MOL      0.349037
     40 H20        -0.3050   10.5120    0.9990 hn        1 MOL      0.349037
     41 N4         -2.9170    3.9660   -0.9410 n         1 MOL     -0.311224
     42 C13        -3.7020    4.2430   -2.1920 c3        1 MOL      0.152915
     43 C14        -5.1090    3.6770   -2.0420 c         1 MOL      0.474820
     44 O6         -6.0300    4.2770   -2.5730 o         1 MOL     -0.567893
     45 C15        -3.0330    3.8610   -3.4720 c3        1 MOL     -0.353786
     46 C16        -2.1350    2.6270   -3.3730 c         1 MOL      0.875213
     47 O7         -1.1150    2.5630   -4.0440 o         1 MOL     -0.736792
     48 O8         -2.4290    1.6610   -2.6450 o         1 MOL     -0.736792
     49 H21        -2.5900    3.0200   -0.7780 hn        1 MOL      0.201859
     50 H22        -3.8010    5.3260   -2.1790 h1        1 MOL      0.059876
     51 H23        -2.3240    4.6670   -3.6720 hc        1 MOL      0.084664
     52 H24        -3.7100    3.7920   -4.3240 hc        1 MOL      0.084664
     53 N5         -5.3550    2.6670   -1.2090 n         1 MOL     -0.149093
     54 C17        -6.7650    2.1620   -1.0030 c3        1 MOL     -0.082825
     55 C18        -7.0950    0.9840   -1.9060 c         1 MOL      0.702006
     56 O9         -7.7050    1.0730   -2.9470 o         1 MOL     -0.553359
     57 H25        -4.6140    2.0540   -0.8920 hn        1 MOL      0.117010
     58 H26        -7.5450    2.8920   -1.1960 h1        1 MOL      0.044749
     59 H27        -6.7460    1.8190    0.0290 h1        1 MOL      0.044749
     60 N6         -6.6970   -0.2390   -1.4400 n         1 MOL     -0.604002
     61 C19        -6.9640   -1.4880   -2.1010 c3        1 MOL      0.034129
     62 C20        -7.0580   -2.7640   -1.2370 c         1 MOL      0.424775
     63 O10        -7.3210   -3.8620   -1.7190 o         1 MOL     -0.524691
     64 C21        -5.8880   -1.7440   -3.1670 c3        1 MOL     -0.110251
     65 C22        -4.4660   -1.6050   -2.6610 c         1 MOL      0.653777
     66 O11        -3.6160   -1.0250   -3.4170 o         1 MOL     -0.718286
     67 O12        -4.1050   -1.9110   -1.4980 o         1 MOL     -0.718286
     68 H28        -6.1050   -0.2280   -0.6200 hn        1 MOL      0.302028
     69 H29        -7.8660   -1.5050   -2.7230 h1        1 MOL      0.092715
     70 H30        -6.0260   -1.0860   -4.0320 hc        1 MOL      0.057298
     71 H31        -6.0300   -2.7460   -3.5670 hc        1 MOL      0.057298
     72 N7         -6.8930   -2.6190    0.0830 n         1 MOL     -0.249056
     73 C23        -6.8760   -3.6920    1.1040 c3        1 MOL     -0.239404
     74 C24        -5.4980   -4.3430    1.2040 c         1 MOL      0.556980
     75 O13        -5.4790   -5.3440    1.9050 o         1 MOL     -0.578381
     76 H32        -6.6710   -1.7290    0.5150 hn        1 MOL      0.231358
     77 H33        -7.6320   -4.4130    0.7920 h1        1 MOL      0.131218
     78 H34        -7.0810   -3.3250    2.1110 h1        1 MOL      0.131218
     79 N8         -4.4340   -3.7370    0.7170 n         1 MOL     -0.108534
     80 C25        -3.1440   -4.3630    0.7440 c3        1 MOL     -0.252864
     81 C26        -1.8950   -3.4760    0.8960 c         1 MOL      0.713592
     82 O14        -1.9470   -2.2920    0.6110 o         1 MOL     -0.624503
     83 C27        -2.9190   -5.2360   -0.5210 c3        1 MOL      0.456094
     84 C28        -3.7280   -6.5490   -0.6750 c3        1 MOL     -0.583566
     85 O15        -3.0560   -4.4100   -1.6350 oh        1 MOL     -0.586626
     86 H35        -4.6010   -2.8330    0.2880 hn        1 MOL      0.108079
     87 H36        -3.2040   -4.9860    1.6360 h1        1 MOL      0.071648
     88 H37        -1.8750   -5.5460   -0.5080 h1        1 MOL     -0.001903
     89 H38        -3.6880   -3.7220   -1.4160 ho        1 MOL      0.380505
     90 H39        -3.6220   -7.1830    0.2060 hc        1 MOL      0.153813
     91 H40        -4.7500   -6.2720   -0.9260 hc        1 MOL      0.153813
     92 H41        -3.2880   -7.0270   -1.5490 hc        1 MOL      0.153813
     93 N9         -0.7130   -4.0300    1.1990 n         1 MOL     -0.531561
     94 C29         0.5480   -3.2390    1.4620 c3        1 MOL      0.009677
     95 C30         1.6590   -3.6510    0.4870 c         1 MOL      0.387109
     96 O16         2.0730   -4.8250    0.4000 o         1 MOL     -0.554305
     97 C31         0.9980   -3.4490    2.8960 c3        1 MOL      0.032289
     98 C32        -0.1280   -2.8250    3.7820 c3        1 MOL     -0.076918
     99 C33         2.2940   -2.8150    3.2500 c3        1 MOL     -0.152965
    100 C34        -0.0550   -3.2440    5.2720 c3        1 MOL     -0.154643
    101 H42        -0.6610   -5.0120    1.4270 hn        1 MOL      0.287414
    102 H43         0.4730   -2.1570    1.2990 h1        1 MOL      0.058239
    103 H44         1.1690   -4.5060    3.0770 hc        1 MOL      0.039125
    104 H45        -1.1100   -3.1100    3.4170 hc        1 MOL      0.077068
    105 H46        -0.1050   -1.7400    3.7340 hc        1 MOL      0.077068
    106 H47         2.5710   -3.2520    4.2150 hc        1 MOL      0.042680
    107 H48         3.0400   -3.1500    2.5320 hc        1 MOL      0.042680
    108 H49         2.1110   -1.7460    3.3100 hc        1 MOL      0.042680
    109 H50         0.8260   -2.9240    5.8300 hc        1 MOL      0.038051
    110 H51        -1.0020   -3.0280    5.7590 hc        1 MOL      0.038051
    111 H52         0.0580   -4.3340    5.3250 hc        1 MOL      0.038051
    112 N10         2.2040   -2.7330   -0.3150 n         1 MOL      0.024939
    113 C35         3.3840   -2.9940   -1.1640 c3        1 MOL     -0.128677
    114 C36         4.6790   -2.6460   -0.4010 c         1 MOL      0.311009
    115 O17         4.5560   -2.3600    0.7260 o         1 MOL     -0.255662
    116 C37         3.2060   -2.0270   -2.3010 c3        1 MOL      0.087831
    117 C38         2.0940   -2.2880   -3.2920 c3        1 MOL     -0.221739
    118 O18         3.2050   -0.7240   -1.9070 oh        1 MOL     -0.575075
    119 H53         1.6790   -1.8630   -0.3320 hn        1 MOL      0.217673
    120 H54         3.4910   -4.0550   -1.4170 h1        1 MOL      0.097781
    121 H55         4.0590   -2.1210   -2.9840 h1        1 MOL      0.023385
    122 H56         2.3440   -0.3050   -1.9220 ho        1 MOL      0.386074
    123 H57         1.1560   -2.3300   -2.7350 hc        1 MOL      0.071559
    124 H58         2.2140   -1.5430   -4.0760 hc        1 MOL      0.071559
    125 H59         2.3060   -3.1970   -3.8680 hc        1 MOL      0.071559
    126 N11         5.8540   -2.6940   -1.0530 n         1 MOL     -0.206861
    127 C39         7.2240   -2.4520   -0.4170 c3        1 MOL     -0.252745
    128 C40         7.5640   -0.9960    0.0250 c         1 MOL      0.276706
    129 O19         8.2470   -0.7950    1.0780 o         1 MOL     -0.484524
    130 C41         8.3490   -3.1420   -1.1050 c3        1 MOL      0.404468
    131 C42         8.0170   -4.6370   -1.2830 c3        1 MOL     -0.484306
    132 O20         8.5130   -2.6040   -2.3840 oh        1 MOL     -0.637370
    133 H60         5.9210   -2.9480   -2.0280 hn        1 MOL      0.245959
    134 H61         7.1220   -2.8990    0.5730 h1        1 MOL      0.164488
    135 H62         9.2880   -3.0760   -0.5460 h1        1 MOL      0.030997
    136 H63         9.4380   -2.7000   -2.6280 ho        1 MOL      0.398854
    137 H64         8.9050   -5.0430   -1.7610 hc        1 MOL      0.135039
    138 H65         7.8250   -5.1010   -0.3150 hc        1 MOL      0.135039
    139 H66         7.1910   -4.8270   -1.9650 hc        1 MOL      0.135039
    140 N12         7.0130    0.0240   -0.5910 n         1 MOL     -0.111697
    141 C43         7.0820    1.4200   -0.0930 c3        1 MOL     -0.009954
    142 C44         6.0040    1.8460    0.9360 c         1 MOL      0.322468
    143 O21         6.1710    2.7770    1.7540 o         1 MOL     -0.495985
    144 C45         7.2210    2.4590   -1.1590 c3        1 MOL     -0.103063
    145 C46         8.4350    2.1730   -2.1320 c3        1 MOL      0.061671
    146 C47         8.4170    3.2610   -3.2340 c3        1 MOL     -0.119268
    147 C48         9.5650    3.0430   -4.2450 c3        1 MOL     -0.130711
    148 N13         9.3220    1.8510   -5.0830 n4        1 MOL     -0.263972
    149 H67         6.4210   -0.1930   -1.3860 hn        1 MOL      0.206928
    150 H68         8.0290    1.4360    0.4400 h1        1 MOL      0.117104
    151 H69         7.3130    3.4600   -0.7400 hc        1 MOL      0.052745
    152 H70         6.3350    2.4280   -1.8070 hc        1 MOL      0.052745
    153 H71         8.3940    1.1690   -2.5550 hc        1 MOL      0.007538
    154 H72         9.4010    2.1580   -1.6250 hc        1 MOL      0.007538
    155 H73         8.5280    4.2910   -2.8910 hc        1 MOL      0.084242
    156 H74         7.4880    3.4240   -3.7840 hc        1 MOL      0.084242
    157 H75        10.5560    3.0570   -3.8020 hx        1 MOL      0.142307
    158 H76         9.6290    3.8690   -4.9450 hx        1 MOL      0.142307
    159 H77         8.3750    1.8160   -5.4370 hn        1 MOL      0.293907
    160 H78         9.8760    1.9140   -5.9210 hn        1 MOL      0.293907
    161 H79         9.4900    0.9370   -4.6960 hn        1 MOL      0.293907
    162 N14         4.8950    1.1600    0.9570 n         1 MOL     -0.115407
    163 C49         3.9090    1.1420    2.0170 c3        1 MOL     -0.107434
    164 C50         4.3960    0.3950    3.2980 c         1 MOL      0.487571
    165 O22         4.3810    0.9250    4.4110 o         1 MOL     -0.533338
    166 C51         2.5270    0.5710    1.5300 c3        1 MOL      0.137935
    167 C52         1.8110    1.3940    0.4380 c3        1 MOL     -0.126338
    168 C53         0.6470    0.7660   -0.1680 c         1 MOL      0.751359
    169 O23        -0.4650    1.3490   -0.2200 o         1 MOL     -0.748452
    170 O24         0.6270   -0.3870   -0.5900 o         1 MOL     -0.748452
    171 H80         4.7930    0.4630    0.2230 hn        1 MOL      0.137511
    172 H81         3.7570    2.1560    2.3780 h1        1 MOL      0.090158
    173 H82         1.9530    0.6360    2.4630 hc        1 MOL      0.040961
    174 H83         2.5390   -0.4720    1.2320 hc        1 MOL      0.040961
    175 H84         2.5480    1.6260   -0.3210 hc        1 MOL     -0.017985
    176 H85         1.5910    2.3160    0.9700 hc        1 MOL     -0.017985
    177 N15         4.9510   -0.7990    3.0600 n         1 MOL     -0.113216
    178 C54         5.4220   -1.7100    4.1450 c3        1 MOL     -0.238830
    179 H86         4.8310   -1.5390    5.0450 h1        1 MOL      0.095263
    180 H87         5.3060   -2.7460    3.8270 h1        1 MOL      0.095263
    181 H88         6.4720   -1.5090    4.3580 h1        1 MOL      0.095263
    182 H89         4.8080   -1.1960    2.1430 hn        1 MOL      0.078020
    183 Ca1        -1.9240   -0.4960   -1.3920 Ca        1 MOL      1.782122
    184 O25        -1.2990   -2.7930   -2.7990 oh        1 MOL     -0.805746
    185 H90        -1.2210   -2.6790   -3.7460 ho        1 MOL      0.379655
    186 H91        -1.9770   -3.4570   -2.6870 ho        1 MOL      0.379655
    187 O26        -0.2400    0.0330   -3.3470 oh        1 MOL     -0.805746
    188 H92        -0.5490    0.8350   -3.7730 ho        1 MOL      0.379655
    189 H93         0.6540   -0.0810   -3.6780 ho        1 MOL      0.379655
@<TRIPOS>BOND
     1    1    2 1   
     2    1    4 1   
     3    1    5 1   
     4    1    6 1   
     5    2    3 2   
     6    2    7 1   
     7    7    8 1   
     8    7   15 1   
     9    8    9 1   
    10    8   11 1   
    11    8   16 1   
    12    9   10 2   
    13    9   19 1   
    14   11   12 1   
    15   11   17 1   
    16   11   18 1   
    17   12   13 1   
    18   12   14 1   
    19   19   20 1   
    20   19   28 1   
    21   20   21 1   
    22   20   23 1   
    23   20   29 1   
    24   21   22 2   
    25   21   41 1   
    26   23   24 1   
    27   23   30 1   
    28   23   31 1   
    29   24   25 1   
    30   24   32 1   
    31   24   33 1   
    32   25   26 1   
    33   25   34 1   
    34   25   35 1   
    35   26   27 1   
    36   26   36 1   
    37   26   37 1   
    38   27   38 1   
    39   27   39 1   
    40   27   40 1   
    41   41   42 1   
    42   41   49 1   
    43   42   43 1   
    44   42   45 1   
    45   42   50 1   
    46   43   44 2   
    47   43   53 1   
    48   45   46 1   
    49   45   51 1   
    50   45   52 1   
    51   46   47 1   
    52   46   48 1   
    53   53   54 1   
    54   53   57 1   
    55   54   55 1   
    56   54   58 1   
    57   54   59 1   
    58   55   56 2   
    59   55   60 1   
    60   60   61 1   
    61   60   68 1   
    62   61   62 1   
    63   61   64 1   
    64   61   69 1   
    65   62   63 2   
    66   62   72 1   
    67   64   65 1   
    68   64   70 1   
    69   64   71 1   
    70   65   66 1   
    71   65   67 1   
    72   72   73 1   
    73   72   76 1   
    74   73   74 1   
    75   73   77 1   
    76   73   78 1   
    77   74   75 2   
    78   74   79 1   
    79   79   80 1   
    80   79   86 1   
    81   80   81 1   
    82   80   83 1   
    83   80   87 1   
    84   81   82 2   
    85   81   93 1   
    86   83   84 1   
    87   83   85 1   
    88   83   88 1   
    89   84   90 1   
    90   84   91 1   
    91   84   92 1   
    92   85   89 1   
    93   93   94 1   
    94   93  101 1   
    95   94   95 1   
    96   94   97 1   
    97   94  102 1   
    98   95   96 2   
    99   95  112 1   
   100   97   98 1   
   101   97   99 1   
   102   97  103 1   
   103   98  100 1   
   104   98  104 1   
   105   98  105 1   
   106   99  106 1   
   107   99  107 1   
   108   99  108 1   
   109  100  109 1   
   110  100  110 1   
   111  100  111 1   
   112  112  113 1   
   113  112  119 1   
   114  113  114 1   
   115  113  116 1   
   116  113  120 1   
   117  114  115 2   
   118  114  126 1   
   119  116  117 1   
   120  116  118 1   
   121  116  121 1   
   122  117  123 1   
   123  117  124 1   
   124  117  125 1   
   125  118  122 1   
   126  126  127 1   
   127  126  133 1   
   128  127  128 1   
   129  127  130 1   
   130  127  134 1   
   131  128  129 2   
   132  128  140 1   
   133  130  131 1   
   134  130  132 1   
   135  130  135 1   
   136  131  137 1   
   137  131  138 1   
   138  131  139 1   
   139  132  136 1   
   140  140  141 1   
   141  140  149 1   
   142  141  142 1   
   143  141  144 1   
   144  141  150 1   
   145  142  143 2   
   146  142  162 1   
   147  144  145 1   
   148  144  151 1   
   149  144  152 1   
   150  145  146 1   
   151  145  153 1   
   152  145  154 1   
   153  146  147 1   
   154  146  155 1   
   155  146  156 1   
   156  147  148 1   
   157  147  157 1   
   158  147  158 1   
   159  148  159 1   
   160  148  160 1   
   161  148  161 1   
   162  162  163 1   
   163  162  171 1   
   164  163  164 1   
   165  163  166 1   
   166  163  172 1   
   167  164  165 2   
   168  164  177 1   
   169  166  167 1   
   170  166  173 1   
   171  166  174 1   
   172  167  168 1   
   173  167  175 1   
   174  167  176 1   
   175  168  169 1   
   176  168  170 1   
   177  177  178 1   
   178  177  182 1   
   179  178  179 1   
   180  178  180 1   
   181  178  181 1   
   182  184  185 1   
   183  184  186 1   
   184  187  188 1   
   185  187  189 1   
@<TRIPOS>SUBSTRUCTURE
     1 MOL         1 TEMP              0 ****  ****    0 ROOT
