@<TRIPOS>MOLECULE
MOL
  172   171     1     0     0
SMALL
resp


@<TRIPOS>ATOM
      1 C1          0.3220    4.9570    5.2030 c3        1 MOL     -0.338070
      2 C2         -0.1880    4.4510    3.8570 c         1 MOL      0.722610
      3 O1          0.3930    4.7200    2.8100 o         1 MOL     -0.547652
      4 H1         -0.3250    5.7590    5.5570 hc        1 MOL      0.085454
      5 H2          0.3150    4.1400    5.9250 hc        1 MOL      0.085454
      6 H3          1.3390    5.3330    5.0880 hc        1 MOL      0.085454
      7 N1         -1.3650    3.7820    3.7170 n         1 MOL     -0.741677
      8 C3         -2.0430    3.3850    2.4230 c3        1 MOL      0.284409
      9 C4         -2.2700    4.6630    1.5350 c         1 MOL      0.597886
     10 O2         -2.5940    5.7530    1.9670 o         1 MOL     -0.586151
     11 C5         -3.4410    2.8860    2.7620 c3        1 MOL     -0.299447
     12 C6         -4.1580    2.4100    1.5000 c         1 MOL      0.665200
     13 O3         -3.4970    2.0290    0.4620 o         1 MOL     -0.637280
     14 O4         -5.4350    2.3130    1.5590 o         1 MOL     -0.637280
     15 H4         -1.8550    3.6270    4.5890 hn        1 MOL      0.324677
     16 H5         -1.4690    2.6630    1.8540 h1        1 MOL      0.034935
     17 H6         -3.9740    3.7890    3.0260 hc        1 MOL      0.062858
     18 H7         -3.4820    2.1470    3.5620 hc        1 MOL      0.062858
     19 N2         -2.0770    4.4800    0.2820 n         1 MOL     -0.504865
     20 C7         -2.5020    5.4000   -0.7400 c3        1 MOL      0.427017
     21 C8         -3.4190    4.8420   -1.8760 c         1 MOL      0.279085
     22 O5         -3.7070    5.6520   -2.7530 o         1 MOL     -0.554539
     23 C9         -1.2040    5.9210   -1.4430 c3        1 MOL     -0.220867
     24 H8         -1.8000    3.5940   -0.1010 hn        1 MOL      0.298120
     25 H9         -2.9370    6.2660   -0.2460 h1        1 MOL     -0.014800
     26 H10        -0.7890    5.1600   -2.1110 hc        1 MOL      0.043528
     27 H11        -1.4460    6.8430   -1.9540 hc        1 MOL      0.043528
     28 H12        -0.4320    6.1310   -0.6930 hc        1 MOL      0.043528
     29 N3         -3.9730    3.6380   -1.8160 n         1 MOL     -0.143293
     30 C10        -4.9060    3.1290   -2.8560 c3        1 MOL      0.129152
     31 C11        -6.1530    2.4510   -2.4100 c         1 MOL      0.371410
     32 O6         -7.0400    2.1650   -3.2680 o         1 MOL     -0.540352
     33 C12        -4.0250    2.2250   -3.7710 c3        1 MOL     -0.353681
     34 C13        -3.2780    1.1970   -2.9730 c         1 MOL      0.866137
     35 O7         -3.8230    0.5660   -2.0410 o         1 MOL     -0.747740
     36 O8         -2.1220    0.8800   -3.2630 o         1 MOL     -0.747740
     37 H13        -3.8390    3.0900   -0.9820 hn        1 MOL      0.045551
     38 H14        -5.3140    3.9750   -3.3920 h1        1 MOL      0.067531
     39 H15        -3.4310    2.9050   -4.3700 hc        1 MOL      0.088790
     40 H16        -4.7050    1.6400   -4.3910 hc        1 MOL      0.088790
     41 N4         -6.2150    2.0150   -1.1110 n         1 MOL     -0.243075
     42 C14        -7.3430    1.2260   -0.6040 c3        1 MOL     -0.118643
     43 C15        -7.5230   -0.1940   -1.1590 c         1 MOL      0.452382
     44 O9         -8.6180   -0.7510   -0.9810 o         1 MOL     -0.611322
     45 H17        -5.4350    2.0530   -0.4670 hn        1 MOL      0.179724
     46 H18        -8.2940    1.7580   -0.6520 h1        1 MOL      0.097981
     47 H19        -7.0850    1.0550    0.4460 h1        1 MOL      0.097981
     48 N5         -6.4830   -0.8640   -1.6680 n         1 MOL     -0.147036
     49 C16        -6.3240   -2.2930   -2.0810 c3        1 MOL     -0.004159
     50 C17        -6.2660   -3.2850   -0.8720 c         1 MOL      0.446298
     51 O10        -6.1930   -4.5030   -1.1210 o         1 MOL     -0.523755
     52 C18        -5.1070   -2.4660   -3.0030 c3        1 MOL     -0.228095
     53 C19        -3.7110   -2.4200   -2.3580 c         1 MOL      0.833662
     54 N6         -2.6550   -2.6400   -3.1250 n         1 MOL     -0.712285
     55 O11        -3.5940   -2.2450   -1.1410 o         1 MOL     -0.821463
     56 H20        -5.6280   -0.3320   -1.6500 hn        1 MOL      0.150256
     57 H21        -7.2230   -2.6260   -2.6110 h1        1 MOL      0.102915
     58 H22        -5.1660   -1.7030   -3.7700 hc        1 MOL      0.060574
     59 H23        -5.1290   -3.4630   -3.4590 hc        1 MOL      0.060574
     60 H24        -2.7080   -2.8190   -4.1160 hn        1 MOL      0.339243
     61 H25        -1.7390   -2.3710   -2.7920 hn        1 MOL      0.339243
     62 N7         -6.3000   -2.8740    0.3990 n         1 MOL     -0.253664
     63 C20        -6.3020   -3.7240    1.5600 c3        1 MOL     -0.298618
     64 C21        -4.9840   -4.2530    2.1260 c         1 MOL      0.471096
     65 O12        -4.9050   -4.9290    3.1790 o         1 MOL     -0.584359
     66 H26        -6.3320   -1.8730    0.5200 hn        1 MOL      0.265785
     67 H27        -6.9230   -4.5930    1.3110 h1        1 MOL      0.141817
     68 H28        -6.7460   -3.0850    2.3170 h1        1 MOL      0.141817
     69 N8         -3.8930   -3.9110    1.4940 n         1 MOL     -0.090619
     70 C22        -2.5480   -4.3520    1.8300 c3        1 MOL     -0.252620
     71 C23        -1.4660   -3.2540    1.6900 c         1 MOL      0.293295
     72 O13        -1.5830   -2.4170    0.8300 o         1 MOL     -0.323796
     73 C24        -2.1410   -5.4820    0.8900 c3        1 MOL      0.510386
     74 C25        -3.0250   -6.7100    0.9550 c3        1 MOL     -0.479638
     75 O14        -2.1960   -5.0230   -0.4380 oh        1 MOL     -0.578636
     76 H29        -3.9290   -3.3280    0.6700 hn        1 MOL      0.255883
     77 H30        -2.4650   -4.7090    2.8590 h1        1 MOL      0.092819
     78 H31        -1.1040   -5.6990    1.1150 h1        1 MOL     -0.060595
     79 H32        -1.6830   -4.2200   -0.5200 ho        1 MOL      0.334281
     80 H33        -3.0290   -7.1290    1.9630 hc        1 MOL      0.125164
     81 H34        -4.0370   -6.4920    0.5880 hc        1 MOL      0.125164
     82 H35        -2.6640   -7.5120    0.3020 hc        1 MOL      0.125164
     83 N9         -0.3890   -3.3330    2.4420 n         1 MOL     -0.117990
     84 C26         0.7360   -2.4310    2.3200 c3        1 MOL     -0.180339
     85 C27         1.5460   -2.9600    1.1010 c         1 MOL      0.625904
     86 O15         1.9600   -4.1070    1.0980 o         1 MOL     -0.598279
     87 C28         1.4920   -2.3950    3.7080 c3        1 MOL     -0.002675
     88 C29         0.7710   -1.8390    4.9240 c3        1 MOL     -0.039468
     89 C30         2.9210   -1.8140    3.5550 c3        1 MOL      0.101936
     90 C31         0.3400   -0.3890    4.6860 c3        1 MOL      0.036429
     91 H36        -0.3020   -4.0860    3.1010 hn        1 MOL      0.216758
     92 H37         0.3820   -1.4310    2.0690 h1        1 MOL      0.156729
     93 H38         1.7030   -3.4150    4.0150 hc        1 MOL      0.006580
     94 H39         1.4300   -1.8640    5.7990 hc        1 MOL      0.003141
     95 H40        -0.1130   -2.4610    5.0280 hc        1 MOL      0.003141
     96 H41         2.9510   -0.7330    3.3860 hc        1 MOL     -0.028288
     97 H42         3.5240   -2.0680    4.4300 hc        1 MOL     -0.028288
     98 H43         3.4730   -2.2200    2.7070 hc        1 MOL     -0.028288
     99 H44         1.1740    0.3080    4.5740 hc        1 MOL     -0.018065
    100 H45        -0.2460   -0.3420    3.7660 hc        1 MOL     -0.018065
    101 H46        -0.3230   -0.0430    5.4740 hc        1 MOL     -0.018065
    102 N10         1.7330   -2.1200    0.0600 n         1 MOL     -0.243591
    103 C32         2.6700   -2.3240   -1.0600 c3        1 MOL      0.067787
    104 C33         4.0600   -1.8040   -0.6820 c         1 MOL      0.447568
    105 O16         4.1930   -1.2450    0.3080 o         1 MOL     -0.248137
    106 C34         2.1210   -1.4740   -2.1760 c3        1 MOL     -0.372317
    107 C35         0.6280   -1.8310   -2.3190 c         1 MOL      0.815407
    108 O17        -0.2860   -1.1650   -1.7760 o         1 MOL     -0.677865
    109 O18         0.3240   -2.6640   -3.1800 o         1 MOL     -0.677865
    110 H47         1.2660   -1.2300    0.1700 hn        1 MOL     -0.153727
    111 H48         2.7080   -3.3680   -1.3800 h1        1 MOL      0.082559
    112 H49         2.6370   -1.7860   -3.0820 hc        1 MOL      0.111527
    113 H50         2.2780   -0.4110   -2.0160 hc        1 MOL      0.111527
    114 N11         5.0720   -1.9350   -1.5810 n         1 MOL     -0.699079
    115 C36         6.4520   -1.5770   -1.2600 c3        1 MOL      0.430465
    116 C37         6.6280    0.0180   -1.0600 c         1 MOL      0.259074
    117 O19         7.2250    0.4210   -0.0540 o         1 MOL     -0.477735
    118 C38         7.4570   -2.1580   -2.2150 c3        1 MOL     -0.192856
    119 C39         8.9360   -1.9590   -1.8800 ca        1 MOL      0.194307
    120 C40         9.4210   -2.4450   -0.7190 ca        1 MOL     -0.252910
    121 C41         9.7700   -1.2900   -2.8070 ca        1 MOL     -0.252910
    122 C42        10.8050   -2.3580   -0.4440 ca        1 MOL     -0.034542
    123 C43        11.1370   -1.0710   -2.4600 ca        1 MOL     -0.034542
    124 C44        11.6960   -1.5990   -1.3140 ca        1 MOL     -0.170890
    125 H51         4.9360   -2.3160   -2.5050 hn        1 MOL      0.339122
    126 H52         6.7000   -2.0160   -0.2960 h1        1 MOL      0.021519
    127 H53         7.1770   -1.6450   -3.1260 hc        1 MOL      0.035317
    128 H54         7.3110   -3.2300   -2.3800 hc        1 MOL      0.035317
    129 H55         8.8490   -3.0690   -0.0380 ha        1 MOL      0.145337
    130 H56         9.4160   -1.0010   -3.7890 ha        1 MOL      0.145337
    131 H57        11.2590   -2.8580    0.4050 ha        1 MOL      0.087512
    132 H58        11.6650   -0.6930   -3.3200 ha        1 MOL      0.087512
    133 H59        12.7610   -1.6500   -1.1290 ha        1 MOL      0.113432
    134 N12         6.1780    0.9480   -1.9140 n         1 MOL     -0.027388
    135 C45         6.3080    2.4130   -1.6040 c3        1 MOL      0.068365
    136 C46         5.6640    2.8480   -0.2490 c         1 MOL      0.235589
    137 O20         6.1840    3.7510    0.4350 o         1 MOL     -0.473045
    138 C47         5.4520    3.0700   -2.6610 c3        1 MOL     -0.115598
    139 C48         5.4810    2.1140   -3.8490 c3        1 MOL      0.071531
    140 C49         5.5610    0.7840   -3.1630 c3        1 MOL     -0.144019
    141 H60         7.3520    2.7060   -1.5700 h1        1 MOL      0.054920
    142 H61         4.4310    3.0600   -2.2730 hc        1 MOL      0.060404
    143 H62         5.7610    4.0720   -2.9410 hc        1 MOL      0.060404
    144 H63         4.6030    2.2380   -4.4850 hc        1 MOL      0.004986
    145 H64         6.3760    2.2460   -4.4430 hc        1 MOL      0.004986
    146 H65         4.5110    0.4850   -3.0690 h1        1 MOL      0.050554
    147 H66         6.1530    0.1160   -3.7900 h1        1 MOL      0.050554
    148 N13         4.7020    2.0340    0.1820 n         1 MOL     -0.007375
    149 C50         3.9650    2.1930    1.4280 c3        1 MOL     -0.180404
    150 C51         4.8170    1.6630    2.5750 c         1 MOL      0.475415
    151 O21         5.0470    2.3750    3.5740 o         1 MOL     -0.564067
    152 C52         2.6530    1.5760    1.4980 c3        1 MOL     -0.011193
    153 C53         1.7810    2.2830    0.5360 c3        1 MOL      0.191570
    154 C54         0.4850    1.5250    0.3260 c         1 MOL      0.714608
    155 O22         0.1630    0.4380    0.8890 o         1 MOL     -0.781633
    156 O23        -0.4680    1.9880   -0.4010 o         1 MOL     -0.781633
    157 H67         4.4520    1.2100   -0.3500 hn        1 MOL      0.146718
    158 H68         3.8030    3.2700    1.5530 h1        1 MOL      0.099304
    159 H69         2.2360    1.7110    2.4960 hc        1 MOL      0.062973
    160 H70         2.7080    0.5380    1.1660 hc        1 MOL      0.062973
    161 H71         2.2480    2.3500   -0.4500 hc        1 MOL     -0.047397
    162 H72         1.5220    3.2730    0.9010 hc        1 MOL     -0.047397
    163 N14         5.4170    0.4750    2.3690 n         1 MOL      0.005354
    164 C55         6.3380   -0.1120    3.2490 c3        1 MOL     -0.176257
    165 H73         6.7910   -0.9820    2.7730 h1        1 MOL      0.058401
    166 H74         7.1150    0.6110    3.4970 h1        1 MOL      0.058401
    167 H75         5.8250   -0.4210    4.1590 h1        1 MOL      0.058401
    168 H76         5.0900   -0.0670    1.5850 hn        1 MOL      0.015705
    169 Ca1        -2.0100   -0.0860   -0.3130 Ca        1 MOL      1.777295
    170 O24        -2.9620   -0.5290    2.4520 oh        1 MOL     -0.912238
    171 H77        -3.8950   -0.6050    2.6310 ho        1 MOL      0.433057
    172 H78        -2.5760   -0.2940    3.2980 ho        1 MOL      0.433057
@<TRIPOS>BOND
     1    1    2 1   
     2    1    4 1   
     3    1    5 1   
     4    1    6 1   
     5    2    3 2   
     6    2    7 1   
     7    7    8 1   
     8    7   15 1   
     9    8    9 1   
    10    8   11 1   
    11    8   16 1   
    12    9   10 2   
    13    9   19 1   
    14   11   12 1   
    15   11   17 1   
    16   11   18 1   
    17   12   13 1   
    18   12   14 1   
    19   19   20 1   
    20   19   24 1   
    21   20   21 1   
    22   20   23 1   
    23   20   25 1   
    24   21   22 2   
    25   21   29 1   
    26   23   26 1   
    27   23   27 1   
    28   23   28 1   
    29   29   30 1   
    30   29   37 1   
    31   30   31 1   
    32   30   33 1   
    33   30   38 1   
    34   31   32 2   
    35   31   41 1   
    36   33   34 1   
    37   33   39 1   
    38   33   40 1   
    39   34   35 1   
    40   34   36 1   
    41   41   42 1   
    42   41   45 1   
    43   42   43 1   
    44   42   46 1   
    45   42   47 1   
    46   43   44 2   
    47   43   48 1   
    48   48   49 1   
    49   48   56 1   
    50   49   50 1   
    51   49   52 1   
    52   49   57 1   
    53   50   51 2   
    54   50   62 1   
    55   52   53 1   
    56   52   58 1   
    57   52   59 1   
    58   53   54 1   
    59   53   55 2   
    60   54   60 1   
    61   54   61 1   
    62   62   63 1   
    63   62   66 1   
    64   63   64 1   
    65   63   67 1   
    66   63   68 1   
    67   64   65 2   
    68   64   69 1   
    69   69   70 1   
    70   69   76 1   
    71   70   71 1   
    72   70   73 1   
    73   70   77 1   
    74   71   72 2   
    75   71   83 1   
    76   73   74 1   
    77   73   75 1   
    78   73   78 1   
    79   74   80 1   
    80   74   81 1   
    81   74   82 1   
    82   75   79 1   
    83   83   84 1   
    84   83   91 1   
    85   84   85 1   
    86   84   87 1   
    87   84   92 1   
    88   85   86 2   
    89   85  102 1   
    90   87   88 1   
    91   87   89 1   
    92   87   93 1   
    93   88   90 1   
    94   88   94 1   
    95   88   95 1   
    96   89   96 1   
    97   89   97 1   
    98   89   98 1   
    99   90   99 1   
   100   90  100 1   
   101   90  101 1   
   102  102  103 1   
   103  102  110 1   
   104  103  104 1   
   105  103  106 1   
   106  103  111 1   
   107  104  105 2   
   108  104  114 1   
   109  106  107 1   
   110  106  112 1   
   111  106  113 1   
   112  107  108 1   
   113  107  109 1   
   114  114  115 1   
   115  114  125 1   
   116  115  116 1   
   117  115  118 1   
   118  115  126 1   
   119  116  117 2   
   120  116  134 1   
   121  118  119 1   
   122  118  127 1   
   123  118  128 1   
   124  119  120 ar  
   125  119  121 ar  
   126  120  122 ar  
   127  120  129 1   
   128  121  123 ar  
   129  121  130 1   
   130  122  124 ar  
   131  122  131 1   
   132  123  124 ar  
   133  123  132 1   
   134  124  133 1   
   135  134  135 1   
   136  134  140 1   
   137  135  136 1   
   138  135  138 1   
   139  135  141 1   
   140  136  137 2   
   141  136  148 1   
   142  138  139 1   
   143  138  142 1   
   144  138  143 1   
   145  139  140 1   
   146  139  144 1   
   147  139  145 1   
   148  140  146 1   
   149  140  147 1   
   150  148  149 1   
   151  148  157 1   
   152  149  150 1   
   153  149  152 1   
   154  149  158 1   
   155  150  151 2   
   156  150  163 1   
   157  152  153 1   
   158  152  159 1   
   159  152  160 1   
   160  153  154 1   
   161  153  161 1   
   162  153  162 1   
   163  154  155 1   
   164  154  156 1   
   165  163  164 1   
   166  163  168 1   
   167  164  165 1   
   168  164  166 1   
   169  164  167 1   
   170  170  171 1   
   171  170  172 1   
@<TRIPOS>SUBSTRUCTURE
     1 MOL         1 TEMP              0 ****  ****    0 ROOT
