@<TRIPOS>MOLECULE
MOL
  189   185     1     0     0
SMALL
resp


@<TRIPOS>ATOM
      1 C1          0.1480    2.0850    5.6870 c3        1 MOL     -0.362691
      2 C2         -0.2620    1.9220    4.2600 c         1 MOL      0.614886
      3 O1          0.5180    2.1370    3.3180 o         1 MOL     -0.567158
      4 H1          0.8850    1.3230    5.9420 hc        1 MOL      0.098157
      5 H2          0.5840    3.0730    5.8300 hc        1 MOL      0.098157
      6 H3         -0.7250    1.9760    6.3310 hc        1 MOL      0.098157
      7 N1         -1.5450    1.4710    4.1070 n         1 MOL     -0.499791
      8 C3         -2.1610    1.2670    2.8040 c3        1 MOL      0.118848
      9 C4         -2.4730    2.6400    2.0750 c         1 MOL      0.498065
     10 O2         -3.6320    3.1220    2.1190 o         1 MOL     -0.503125
     11 C5         -3.4500    0.4920    2.9460 c3        1 MOL     -0.314602
     12 C6         -4.0120    0.0120    1.6570 c         1 MOL      0.840753
     13 O3         -5.0570   -0.5880    1.7440 o         1 MOL     -0.684872
     14 O4         -3.3570    0.1110    0.6200 o         1 MOL     -0.684872
     15 H4         -2.0810    1.3910    4.9540 hn        1 MOL      0.316402
     16 H5         -1.4660    0.6210    2.2660 h1        1 MOL      0.051366
     17 H6         -4.2380    1.0630    3.4430 hc        1 MOL      0.076501
     18 H7         -3.2770   -0.3940    3.5680 hc        1 MOL      0.076501
     19 N2         -1.4720    3.3850    1.6000 n         1 MOL     -0.424851
     20 C7         -1.5620    4.8390    1.2560 c3        1 MOL      0.090736
     21 C8         -2.7150    5.0850    0.2770 c         1 MOL      0.442217
     22 O5         -3.1890    6.2130    0.2530 o         1 MOL     -0.587166
     23 C9         -0.1710    5.2470    0.6560 c3        1 MOL      0.012744
     24 C10         0.0510    6.6240   -0.0700 c3        1 MOL     -0.162152
     25 C11        -0.2140    7.7200    0.9750 c3        1 MOL      0.155144
     26 C12        -0.2820    9.0850    0.3690 c3        1 MOL      0.114070
     27 N3         -0.5100   10.1410    1.3550 n4        1 MOL     -0.222150
     28 H8         -0.5480    2.9840    1.6040 hn        1 MOL      0.308234
     29 H9         -1.7560    5.4390    2.1360 h1        1 MOL      0.054102
     30 H10         0.0080    4.5050   -0.1170 hc        1 MOL      0.029836
     31 H11         0.5170    5.1360    1.4960 hc        1 MOL      0.029836
     32 H12        -0.6500    6.7660   -0.9020 hc        1 MOL      0.040449
     33 H13         1.0750    6.7440   -0.4240 hc        1 MOL      0.040449
     34 H14         0.6650    7.6180    1.6090 hc        1 MOL     -0.041745
     35 H15        -1.1480    7.4910    1.4890 hc        1 MOL     -0.041745
     36 H16        -0.9610    9.2460   -0.4720 hx        1 MOL      0.033856
     37 H17         0.7270    9.2550   -0.0040 hx        1 MOL      0.033856
     38 H18        -0.1580   10.9980    0.9620 hn        1 MOL      0.288781
     39 H19        -1.4840   10.4130    1.3690 hn        1 MOL      0.288781
     40 H20        -0.1090   10.0410    2.2760 hn        1 MOL      0.288781
     41 N4         -2.9950    4.1710   -0.6270 n         1 MOL     -0.156381
     42 C13        -3.9490    4.3890   -1.7190 c3        1 MOL      0.185925
     43 C14        -5.2810    3.6790   -1.4450 c         1 MOL      0.408582
     44 O6         -6.3210    4.2920   -1.7630 o         1 MOL     -0.565790
     45 C15        -3.2530    3.9370   -2.9310 c3        1 MOL     -0.462511
     46 C16        -2.6910    2.5340   -2.9680 c         1 MOL      0.871789
     47 O7         -1.9200    2.2360   -3.8870 o         1 MOL     -0.722359
     48 O8         -2.8390    1.7420   -2.0020 o         1 MOL     -0.722359
     49 H21        -2.6550    3.2200   -0.6150 hn        1 MOL      0.142791
     50 H22        -4.1400    5.4590   -1.8530 h1        1 MOL      0.048204
     51 H23        -2.4570    4.6640   -3.1100 hc        1 MOL      0.109133
     52 H24        -4.0380    3.9340   -3.6840 hc        1 MOL      0.109133
     53 N5         -5.3260    2.5950   -0.6550 n         1 MOL      0.033669
     54 C17        -6.5290    1.8850   -0.1790 c3        1 MOL     -0.204557
     55 C18        -6.9960    0.7440   -1.0920 c         1 MOL      0.645657
     56 O9         -7.7610    1.0210   -1.9830 o         1 MOL     -0.546790
     57 H25        -4.4300    2.2730   -0.3070 hn        1 MOL     -0.077460
     58 H26        -7.3390    2.6140   -0.1120 h1        1 MOL      0.092803
     59 H27        -6.3960    1.5840    0.8580 h1        1 MOL      0.092803
     60 N6         -6.6300   -0.4500   -0.6910 n         1 MOL     -0.424484
     61 C19        -6.9890   -1.7200   -1.3250 c3        1 MOL     -0.080861
     62 C20        -6.9330   -3.0190   -0.4530 c         1 MOL      0.488271
     63 O10        -7.2560   -4.1150   -0.8900 o         1 MOL     -0.539865
     64 C21        -6.1560   -1.9490   -2.5800 c3        1 MOL     -0.068571
     65 C22        -4.6040   -1.6660   -2.3120 c         1 MOL      0.637499
     66 O11        -3.9440   -0.9110   -3.0650 o         1 MOL     -0.675563
     67 O12        -4.0220   -2.3300   -1.3960 o         1 MOL     -0.675563
     68 H28        -6.0660   -0.4780    0.1430 hn        1 MOL      0.186994
     69 H29        -8.0260   -1.6920   -1.6670 h1        1 MOL      0.105663
     70 H30        -6.4360   -1.2870   -3.3980 hc        1 MOL      0.043292
     71 H31        -6.2620   -2.9660   -2.9580 hc        1 MOL      0.043292
     72 N7         -6.4710   -2.8800    0.7900 n         1 MOL     -0.305396
     73 C23        -6.3430   -3.9830    1.7280 c3        1 MOL     -0.202488
     74 C24        -4.9700   -4.7500    1.5930 c         1 MOL      0.531196
     75 O13        -4.8590   -5.7260    2.2920 o         1 MOL     -0.571919
     76 H32        -6.0360   -1.9950    1.0220 hn        1 MOL      0.291546
     77 H33        -7.1360   -4.7150    1.5580 h1        1 MOL      0.117523
     78 H34        -6.4760   -3.5870    2.7350 h1        1 MOL      0.117523
     79 N8         -4.0130   -4.2790    0.8130 n         1 MOL     -0.148140
     80 C25        -2.7170   -4.9630    0.5450 c3        1 MOL     -0.346311
     81 C26        -1.6980   -3.8680    0.7040 c         1 MOL      0.661175
     82 O14        -1.8410   -2.7410    0.2870 o         1 MOL     -0.662108
     83 C27        -2.7330   -5.5770   -0.8980 c3        1 MOL      0.578015
     84 C28        -3.5060   -6.9080   -0.8160 c3        1 MOL     -0.580335
     85 O15        -3.3530   -4.8080   -1.9150 oh        1 MOL     -0.625244
     86 H35        -4.2550   -3.4040    0.3790 hn        1 MOL      0.167075
     87 H36        -2.3860   -5.7010    1.2620 h1        1 MOL      0.136249
     88 H37        -1.7040   -5.8170   -1.1620 h1        1 MOL     -0.043741
     89 H38        -3.6670   -4.0080   -1.4930 ho        1 MOL      0.392986
     90 H39        -4.5810   -6.7780   -0.7120 hc        1 MOL      0.148464
     91 H40        -3.2780   -7.4980   -1.7040 hc        1 MOL      0.148464
     92 H41        -3.2640   -7.3970    0.1300 hc        1 MOL      0.148464
     93 N9         -0.4480   -4.3010    1.0770 n         1 MOL     -0.460296
     94 C29         0.8130   -3.4920    1.2050 c3        1 MOL      0.039736
     95 C30         1.8760   -3.9800    0.2640 c         1 MOL      0.296229
     96 O16         2.3520   -5.1400    0.2110 o         1 MOL     -0.507360
     97 C31         1.1970   -3.6310    2.6610 c3        1 MOL      0.019894
     98 C32         0.2660   -2.7650    3.5790 c3        1 MOL     -0.114372
     99 C33         2.6870   -3.2700    2.8900 c3        1 MOL     -0.090207
    100 C34         0.6430   -3.0480    5.0320 c3        1 MOL     -0.148049
    101 H42        -0.3880   -5.2300    1.4610 hn        1 MOL      0.271405
    102 H43         0.4750   -2.4980    0.9360 h1        1 MOL      0.093843
    103 H44         1.0060   -4.6540    2.9600 hc        1 MOL      0.042502
    104 H45        -0.7310   -3.0760    3.3000 hc        1 MOL      0.065500
    105 H46         0.3280   -1.7130    3.3000 hc        1 MOL      0.065500
    106 H47         3.1280   -3.5410    3.8460 hc        1 MOL      0.013239
    107 H48         3.3460   -3.8370    2.2240 hc        1 MOL      0.013239
    108 H49         2.8400   -2.2010    2.6840 hc        1 MOL      0.013239
    109 H50         1.6050   -2.5980    5.2560 hc        1 MOL      0.044021
    110 H51        -0.0980   -2.6430    5.7140 hc        1 MOL      0.044021
    111 H52         0.7740   -4.1090    5.2350 hc        1 MOL      0.044021
    112 N10         2.2760   -3.0440   -0.6130 n         1 MOL     -0.041584
    113 C35         3.4960   -3.2300   -1.4850 c3        1 MOL     -0.050168
    114 C36         4.8170   -2.8380   -0.6940 c         1 MOL      0.407516
    115 O17         4.8190   -2.3850    0.4030 o         1 MOL     -0.277929
    116 C37         3.3070   -2.3520   -2.7470 c3        1 MOL      0.128186
    117 C38         2.0720   -2.7220   -3.6340 c3        1 MOL     -0.189947
    118 O18         3.1710   -1.0430   -2.3020 oh        1 MOL     -0.564770
    119 H53         1.8330   -2.1440   -0.6520 hn        1 MOL      0.203299
    120 H54         3.5980   -4.2900   -1.7130 h1        1 MOL      0.066343
    121 H55         4.2450   -2.3800   -3.3070 h1        1 MOL      0.041348
    122 H56         2.3230   -0.9560   -1.8790 ho        1 MOL      0.364017
    123 H57         2.3900   -3.3500   -4.4700 hc        1 MOL      0.054779
    124 H58         1.2740   -3.2340   -3.0930 hc        1 MOL      0.054779
    125 H59         1.6890   -1.7830   -4.0230 hc        1 MOL      0.054779
    126 N11         5.9580   -3.0940   -1.3580 n         1 MOL     -0.378827
    127 C39         7.3300   -2.7470   -0.9060 c3        1 MOL     -0.080999
    128 C40         7.4580   -1.2950   -0.4240 c         1 MOL      0.252496
    129 O19         8.0720   -1.0160    0.6420 o         1 MOL     -0.445855
    130 C41         8.2860   -3.1370   -1.9940 c3        1 MOL      0.437642
    131 C42         9.7530   -3.1520   -1.4980 c3        1 MOL     -0.392894
    132 O20         8.0370   -4.3970   -2.5240 oh        1 MOL     -0.594686
    133 H60         5.9080   -3.4700   -2.2970 hn        1 MOL      0.221004
    134 H61         7.4800   -3.3490   -0.0080 h1        1 MOL      0.133858
    135 H62         8.0040   -2.4500   -2.7860 h1        1 MOL     -0.067850
    136 H63         7.3340   -4.3440   -3.1750 ho        1 MOL      0.393027
    137 H64        10.4120   -3.4450   -2.3120 hc        1 MOL      0.120765
    138 H65        10.1730   -2.2040   -1.1810 hc        1 MOL      0.120765
    139 H66         9.9140   -3.8030   -0.6400 hc        1 MOL      0.120765
    140 N12         6.9180   -0.3180   -1.1730 n         1 MOL     -0.215979
    141 C43         7.0160    1.1080   -0.8510 c3        1 MOL     -0.141926
    142 C44         6.0790    1.4030    0.3430 c         1 MOL      0.301043
    143 O21         6.5150    2.1450    1.2530 o         1 MOL     -0.511629
    144 C45         6.5310    1.8590   -2.0590 c3        1 MOL     -0.270714
    145 C46         6.6400    3.4240   -1.8140 c3        1 MOL      0.270511
    146 C47         6.0950    4.1870   -3.0230 c3        1 MOL     -0.052873
    147 C48         6.1130    5.7050   -2.8240 c3        1 MOL     -0.120203
    148 N13         5.3410    6.2130   -1.6840 n4        1 MOL     -0.225666
    149 H67         6.4700   -0.6070   -2.0350 hn        1 MOL      0.261867
    150 H68         8.0620    1.2900   -0.5900 h1        1 MOL      0.182698
    151 H69         5.5420    1.4680   -2.2860 hc        1 MOL      0.082684
    152 H70         7.1410    1.6000   -2.9180 hc        1 MOL      0.082684
    153 H71         7.6800    3.6670   -1.5790 hc        1 MOL     -0.034764
    154 H72         6.0620    3.6350   -0.9140 hc        1 MOL     -0.034764
    155 H73         5.1040    3.7510   -3.1160 hc        1 MOL      0.055294
    156 H74         6.7170    3.9000   -3.8730 hc        1 MOL      0.055294
    157 H75         5.6800    6.1410   -3.7270 hx        1 MOL      0.114863
    158 H76         7.1350    6.0520   -2.7310 hx        1 MOL      0.114863
    159 H77         5.3010    7.2180   -1.6000 hn        1 MOL      0.287955
    160 H78         4.3870    5.8690   -1.6430 hn        1 MOL      0.287955
    161 H79         5.8910    5.9530   -0.8760 hn        1 MOL      0.287955
    162 N14         4.9330    0.7460    0.5150 n         1 MOL     -0.001943
    163 C49         4.0920    0.9320    1.7170 c3        1 MOL     -0.171185
    164 C50         4.6770    0.2390    2.9460 c         1 MOL      0.460304
    165 O22         4.6190    0.7440    4.0660 o         1 MOL     -0.551975
    166 C51         2.8030    0.3430    1.2390 c3        1 MOL      0.079349
    167 C52         2.0360    1.2560    0.2730 c3        1 MOL     -0.145787
    168 C53         0.7820    0.5210   -0.2030 c         1 MOL      0.710054
    169 O23        -0.3650    0.9740   -0.0440 o         1 MOL     -0.713166
    170 O24         0.8980   -0.5460   -0.8320 o         1 MOL     -0.713166
    171 H80         4.5590    0.0960   -0.1580 hn        1 MOL      0.156746
    172 H81         4.0920    2.0170    1.8890 h1        1 MOL      0.099786
    173 H82         2.1200    0.2780    2.0850 hc        1 MOL      0.043945
    174 H83         2.9800   -0.6390    0.7960 hc        1 MOL      0.043945
    175 H84         2.6960    1.3360   -0.5930 hc        1 MOL     -0.017818
    176 H85         1.8550    2.2310    0.7110 hc        1 MOL     -0.017818
    177 N15         5.2900   -0.9530    2.7620 n         1 MOL      0.057563
    178 C54         6.0300   -1.5930    3.8610 c3        1 MOL     -0.392109
    179 H86         6.1510   -2.6540    3.6460 h1        1 MOL      0.128962
    180 H87         7.0110   -1.1280    3.9590 h1        1 MOL      0.128962
    181 H88         5.4750   -1.4730    4.7920 h1        1 MOL      0.128962
    182 H89         5.3080   -1.3540    1.8390 hn        1 MOL      0.061897
    183 Ca1        -2.0470   -0.5950   -1.2550 Ca        1 MOL      1.793144
    184 O25        -0.9580   -0.2920   -3.7260 oh        1 MOL     -0.827167
    185 H90        -1.1020    0.6440   -3.8070 ho        1 MOL      0.388610
    186 H91        -0.7030   -0.5760   -4.6090 ho        1 MOL      0.388610
    187 O26        -1.2500   -2.7520   -2.4780 oh        1 MOL     -0.827167
    188 H92        -0.8340   -2.6820   -3.3340 ho        1 MOL      0.388610
    189 H93        -1.9490   -3.3950   -2.6070 ho        1 MOL      0.388610
@<TRIPOS>BOND
     1    1    2 1   
     2    1    4 1   
     3    1    5 1   
     4    1    6 1   
     5    2    3 2   
     6    2    7 1   
     7    7    8 1   
     8    7   15 1   
     9    8    9 1   
    10    8   11 1   
    11    8   16 1   
    12    9   10 2   
    13    9   19 1   
    14   11   12 1   
    15   11   17 1   
    16   11   18 1   
    17   12   13 1   
    18   12   14 1   
    19   19   20 1   
    20   19   28 1   
    21   20   21 1   
    22   20   23 1   
    23   20   29 1   
    24   21   22 2   
    25   21   41 1   
    26   23   24 1   
    27   23   30 1   
    28   23   31 1   
    29   24   25 1   
    30   24   32 1   
    31   24   33 1   
    32   25   26 1   
    33   25   34 1   
    34   25   35 1   
    35   26   27 1   
    36   26   36 1   
    37   26   37 1   
    38   27   38 1   
    39   27   39 1   
    40   27   40 1   
    41   41   42 1   
    42   41   49 1   
    43   42   43 1   
    44   42   45 1   
    45   42   50 1   
    46   43   44 2   
    47   43   53 1   
    48   45   46 1   
    49   45   51 1   
    50   45   52 1   
    51   46   47 1   
    52   46   48 1   
    53   53   54 1   
    54   53   57 1   
    55   54   55 1   
    56   54   58 1   
    57   54   59 1   
    58   55   56 2   
    59   55   60 1   
    60   60   61 1   
    61   60   68 1   
    62   61   62 1   
    63   61   64 1   
    64   61   69 1   
    65   62   63 2   
    66   62   72 1   
    67   64   65 1   
    68   64   70 1   
    69   64   71 1   
    70   65   66 1   
    71   65   67 1   
    72   72   73 1   
    73   72   76 1   
    74   73   74 1   
    75   73   77 1   
    76   73   78 1   
    77   74   75 2   
    78   74   79 1   
    79   79   80 1   
    80   79   86 1   
    81   80   81 1   
    82   80   83 1   
    83   80   87 1   
    84   81   82 2   
    85   81   93 1   
    86   83   84 1   
    87   83   85 1   
    88   83   88 1   
    89   84   90 1   
    90   84   91 1   
    91   84   92 1   
    92   85   89 1   
    93   93   94 1   
    94   93  101 1   
    95   94   95 1   
    96   94   97 1   
    97   94  102 1   
    98   95   96 2   
    99   95  112 1   
   100   97   98 1   
   101   97   99 1   
   102   97  103 1   
   103   98  100 1   
   104   98  104 1   
   105   98  105 1   
   106   99  106 1   
   107   99  107 1   
   108   99  108 1   
   109  100  109 1   
   110  100  110 1   
   111  100  111 1   
   112  112  113 1   
   113  112  119 1   
   114  113  114 1   
   115  113  116 1   
   116  113  120 1   
   117  114  115 2   
   118  114  126 1   
   119  116  117 1   
   120  116  118 1   
   121  116  121 1   
   122  117  123 1   
   123  117  124 1   
   124  117  125 1   
   125  118  122 1   
   126  126  127 1   
   127  126  133 1   
   128  127  128 1   
   129  127  130 1   
   130  127  134 1   
   131  128  129 2   
   132  128  140 1   
   133  130  131 1   
   134  130  132 1   
   135  130  135 1   
   136  131  137 1   
   137  131  138 1   
   138  131  139 1   
   139  132  136 1   
   140  140  141 1   
   141  140  149 1   
   142  141  142 1   
   143  141  144 1   
   144  141  150 1   
   145  142  143 2   
   146  142  162 1   
   147  144  145 1   
   148  144  151 1   
   149  144  152 1   
   150  145  146 1   
   151  145  153 1   
   152  145  154 1   
   153  146  147 1   
   154  146  155 1   
   155  146  156 1   
   156  147  148 1   
   157  147  157 1   
   158  147  158 1   
   159  148  159 1   
   160  148  160 1   
   161  148  161 1   
   162  162  163 1   
   163  162  171 1   
   164  163  164 1   
   165  163  166 1   
   166  163  172 1   
   167  164  165 2   
   168  164  177 1   
   169  166  167 1   
   170  166  173 1   
   171  166  174 1   
   172  167  168 1   
   173  167  175 1   
   174  167  176 1   
   175  168  169 1   
   176  168  170 1   
   177  177  178 1   
   178  177  182 1   
   179  178  179 1   
   180  178  180 1   
   181  178  181 1   
   182  184  185 1   
   183  184  186 1   
   184  187  188 1   
   185  187  189 1   
@<TRIPOS>SUBSTRUCTURE
     1 MOL         1 TEMP              0 ****  ****    0 ROOT
