@<TRIPOS>MOLECULE
MOL
  189   185     1     0     0
SMALL
resp


@<TRIPOS>ATOM
      1 C1          0.9820   -5.0930    5.6700 c3        1 MOL     -0.328904
      2 C2          1.4230   -4.2920    4.4100 c         1 MOL      0.701658
      3 O1          1.4030   -3.0780    4.4570 o         1 MOL     -0.598886
      4 H1          1.4310   -6.0860    5.6430 hc        1 MOL      0.081186
      5 H2          1.3120   -4.5700    6.5680 hc        1 MOL      0.081186
      6 H3         -0.1030   -5.1850    5.6810 hc        1 MOL      0.081186
      7 N1          1.8850   -4.8660    3.3230 n         1 MOL     -0.497734
      8 C3          2.5180   -4.1770    2.1770 c3        1 MOL      0.074966
      9 C4          2.5630   -5.1180    0.9750 c         1 MOL      0.593464
     10 O2          2.6880   -6.3570    1.1130 o         1 MOL     -0.579869
     11 C5          3.9200   -3.7170    2.5570 c3        1 MOL     -0.235008
     12 C6          4.4800   -2.7990    1.5280 c         1 MOL      0.758316
     13 O3          5.6670   -2.5720    1.7740 o         1 MOL     -0.675780
     14 O4          3.8050   -2.3140    0.5370 o         1 MOL     -0.675780
     15 H4          1.8430   -5.8820    3.2990 hn        1 MOL      0.272342
     16 H5          1.8990   -3.3000    1.9790 h1        1 MOL      0.047918
     17 H6          4.5070   -4.6370    2.6550 hc        1 MOL      0.060562
     18 H7          3.8930   -3.3150    3.5660 hc        1 MOL      0.060562
     19 N2          2.2670   -4.5770   -0.2370 n         1 MOL     -0.428680
     20 C7          2.4320   -5.4420   -1.4390 c3        1 MOL     -0.111575
     21 C8          3.3120   -4.8930   -2.5980 c         1 MOL      0.476335
     22 O5          3.6050   -5.6300   -3.5430 o         1 MOL     -0.572736
     23 C9          1.0050   -5.8660   -1.9870 c3        1 MOL      0.344093
     24 C10         0.0320   -4.7420   -2.3440 c3        1 MOL      0.255008
     25 C11         0.3120   -6.7220   -0.9980 c3        1 MOL     -0.381534
     26 C12        -0.8550   -5.2150   -3.4580 c3        1 MOL     -0.422462
     27 H8          2.1810   -3.5800   -0.3560 hn        1 MOL      0.225618
     28 H9          2.9690   -6.3630   -1.2270 h1        1 MOL      0.104651
     29 H10         1.1860   -6.4460   -2.8900 hc        1 MOL     -0.070402
     30 H11         0.6020   -3.8900   -2.7200 hc        1 MOL     -0.008876
     31 H12        -0.4600   -4.3720   -1.4490 hc        1 MOL     -0.008876
     32 H13        -0.6890   -6.9280   -1.3610 hc        1 MOL      0.065362
     33 H14         0.9010   -7.6330   -0.8960 hc        1 MOL      0.065362
     34 H15         0.1860   -6.2690   -0.0180 hc        1 MOL      0.065362
     35 H16        -1.4200   -6.1000   -3.1650 hc        1 MOL      0.083286
     36 H17        -1.5390   -4.4090   -3.7480 hc        1 MOL      0.083286
     37 H18        -0.1850   -5.4260   -4.2850 hc        1 MOL      0.083286
     38 N3          3.8210   -3.6860   -2.4240 n         1 MOL     -0.327067
     39 C13         4.5980   -2.9900   -3.4030 c3        1 MOL     -0.001077
     40 C14         5.8570   -2.1590   -2.9270 c         1 MOL      0.455144
     41 O6          6.5370   -1.5370   -3.7220 o         1 MOL     -0.522721
     42 C15         3.6360   -2.1340   -4.2600 c3        1 MOL     -0.263358
     43 C16         2.7950   -1.0830   -3.5520 c         1 MOL      0.830604
     44 O7          2.9020   -0.9230   -2.3450 o         1 MOL     -0.745906
     45 O8          1.8940   -0.4780   -4.2080 o         1 MOL     -0.745906
     46 H19         3.5080   -3.1320   -1.6430 hn        1 MOL      0.303531
     47 H20         5.0500   -3.7290   -4.0540 h1        1 MOL      0.088414
     48 H21         3.0120   -2.8650   -4.7700 hc        1 MOL      0.059509
     49 H22         4.2210   -1.5450   -4.9770 hc        1 MOL      0.059509
     50 N4          6.0910   -2.2480   -1.6150 n         1 MOL     -0.303653
     51 C17         7.3470   -1.8520   -0.9680 c3        1 MOL      0.037404
     52 C18         7.7020   -0.3710   -1.2060 c         1 MOL      0.393504
     53 O9          8.9190   -0.1130   -1.2570 o         1 MOL     -0.607373
     54 H23         5.4630   -2.8560   -1.1080 hn        1 MOL      0.173739
     55 H24         8.1550   -2.4980   -1.3240 h1        1 MOL      0.052187
     56 H25         7.2740   -1.9490    0.1190 h1        1 MOL      0.052187
     57 N5          6.7360    0.4970   -1.4070 n         1 MOL      0.004340
     58 C19         6.9590    1.8850   -1.9640 c3        1 MOL     -0.081372
     59 C20         7.1150    2.9570   -0.8920 c         1 MOL      0.403840
     60 O10         7.4210    4.0950   -1.1760 o         1 MOL     -0.507875
     61 C21         5.7310    2.3720   -2.7750 c3        1 MOL     -0.313382
     62 C22         4.4150    2.4760   -1.9140 c         1 MOL      0.724368
     63 O11         4.2170    1.7820   -0.8840 o         1 MOL     -0.648286
     64 O12         3.4080    2.9420   -2.4680 o         1 MOL     -0.648286
     65 H26         5.8160    0.2100   -1.0870 hn        1 MOL      0.052849
     66 H27         7.8420    1.8580   -2.6110 h1        1 MOL      0.131163
     67 H28         5.6030    1.6030   -3.5440 hc        1 MOL      0.106765
     68 H29         6.0450    3.3110   -3.2250 hc        1 MOL      0.106765
     69 N6          6.8700    2.5660    0.3930 n         1 MOL     -0.298936
     70 C23         6.8360    3.4940    1.5650 c3        1 MOL     -0.181324
     71 C24         5.5080    4.2210    1.7680 c         1 MOL      0.527572
     72 O13         5.5090    5.1460    2.5600 o         1 MOL     -0.586639
     73 H30         6.7170    1.5760    0.5550 hn        1 MOL      0.243387
     74 H31         7.6570    4.2000    1.4740 h1        1 MOL      0.109192
     75 H32         7.0510    2.8890    2.4460 h1        1 MOL      0.109192
     76 N7          4.4180    3.9210    0.9840 n         1 MOL     -0.168194
     77 C25         3.0640    4.4740    1.2870 c3        1 MOL     -0.135044
     78 C26         2.0340    3.3840    1.5460 c         1 MOL      0.557487
     79 O14         2.3370    2.1910    1.3890 o         1 MOL     -0.588145
     80 C27         2.5360    5.3730    0.1890 c3        1 MOL      0.075028
     81 C28         3.3370    6.6540    0.0270 c3        1 MOL     -0.183145
     82 C29         2.5890    7.6970   -0.8270 c         1 MOL      0.538221
     83 N8          2.5320    7.6080   -2.1280 n         1 MOL     -0.713319
     84 O15         1.9240    8.5960   -0.2640 o         1 MOL     -0.583345
     85 H33         4.5170    3.1850    0.3040 hn        1 MOL      0.139536
     86 H34         3.0080    5.1760    2.1210 h1        1 MOL      0.087497
     87 H35         1.5340    5.6440    0.5140 hc        1 MOL      0.032022
     88 H36         2.4000    4.8660   -0.7780 hc        1 MOL      0.032022
     89 H37         4.3180    6.4300   -0.3830 hc        1 MOL      0.073923
     90 H38         3.4630    7.0910    1.0120 hc        1 MOL      0.073923
     91 H39         2.9200    6.7980   -2.5900 hn        1 MOL      0.352491
     92 H40         2.0350    8.3850   -2.5240 hn        1 MOL      0.352491
     93 N9          0.8920    3.7350    2.1550 n         1 MOL     -0.463129
     94 C30        -0.2430    2.8000    2.3740 c3        1 MOL      0.103860
     95 C31        -1.3370    3.2150    1.4300 c         1 MOL      0.391986
     96 O16        -1.8850    4.3170    1.4890 o         1 MOL     -0.557470
     97 C32        -0.6670    2.7640    3.8150 c3        1 MOL      0.362379
     98 C33        -1.7260    1.6820    4.1530 c3        1 MOL     -0.396913
     99 C34         0.4380    2.5400    4.8510 c3        1 MOL     -0.396913
    100 H41         0.7860    4.6900    2.4390 hn        1 MOL      0.268942
    101 H42         0.1100    1.7950    2.1280 h1        1 MOL      0.093032
    102 H43        -1.1710    3.7160    3.9890 hc        1 MOL     -0.062146
    103 H44        -1.1410    0.7920    3.9170 hc        1 MOL      0.086763
    104 H45        -1.8980    1.7180    5.2220 hc        1 MOL      0.086763
    105 H46        -2.5790    1.6130    3.4730 hc        1 MOL      0.086763
    106 H47         0.1050    2.7110    5.8750 hc        1 MOL      0.086763
    107 H48         0.8420    1.5410    4.7060 hc        1 MOL      0.086763
    108 H49         1.2500    3.2240    4.5970 hc        1 MOL      0.086763
    109 N10        -1.8860    2.1960    0.7530 n         1 MOL     -0.236330
    110 C35        -3.0560    2.2580   -0.1120 c3        1 MOL      0.059253
    111 C36        -4.3510    1.9240    0.6890 c         1 MOL      0.198265
    112 O17        -4.2670    1.1610    1.5920 o         1 MOL     -0.230385
    113 C37        -2.7640    1.2050   -1.2260 c3        1 MOL     -0.323294
    114 C38        -3.9550    1.0800   -2.0760 c         1 MOL      0.639611
    115 N11        -4.5370    2.1930   -2.5960 n         1 MOL     -0.781987
    116 O18        -4.4160   -0.0340   -2.2900 o         1 MOL     -0.504835
    117 H50        -1.4100    1.3240    0.9230 hn        1 MOL      0.200251
    118 H51        -3.0930    3.2510   -0.5590 h1        1 MOL      0.075060
    119 H52        -2.5000    0.2400   -0.7930 hc        1 MOL      0.158319
    120 H53        -1.8970    1.5680   -1.7790 hc        1 MOL      0.158319
    121 H54        -4.1080    3.1090   -2.6160 hn        1 MOL      0.341032
    122 H55        -5.2070    2.0250   -3.3340 hn        1 MOL      0.341032
    123 N12        -5.5100    2.3800    0.2940 n         1 MOL     -0.151738
    124 C39        -6.7090    2.0250    0.9600 c3        1 MOL      0.065740
    125 C40        -6.9230    0.5610    1.0010 c         1 MOL      0.298484
    126 O19        -7.5220    0.1000    1.9900 o         1 MOL     -0.579358
    127 C41        -7.9550    2.7450    0.3440 c3        1 MOL      0.038568
    128 C42        -8.1050    2.6220   -1.1940 ca        1 MOL     -0.057986
    129 C43        -7.6790    3.5210   -2.1050 ca        1 MOL     -0.147260
    130 C44        -8.8210    1.5370   -1.6420 ca        1 MOL     -0.147260
    131 C45        -7.8910    3.3740   -3.4910 ca        1 MOL     -0.244473
    132 C46        -9.1230    1.3070   -2.9950 ca        1 MOL     -0.244473
    133 C47        -8.5930    2.2260   -3.9820 ca        1 MOL      0.337643
    134 O20        -8.8790    2.0020   -5.2470 oh        1 MOL     -0.534171
    135 H56        -5.5390    3.0360   -0.4680 hn        1 MOL      0.129814
    136 H57        -6.7220    2.3350    2.0050 h1        1 MOL      0.041916
    137 H58        -7.7800    3.8020    0.5640 hc        1 MOL      0.014739
    138 H59        -8.8270    2.4790    0.9290 hc        1 MOL      0.014739
    139 H60        -7.2130    4.4420   -1.7860 ha        1 MOL      0.133162
    140 H61        -9.2750    0.8800   -0.9220 ha        1 MOL      0.133162
    141 H62        -7.6820    4.1460   -4.2210 ha        1 MOL      0.119239
    142 H63        -9.6870    0.4620   -3.3800 ha        1 MOL      0.119239
    143 H64        -9.4100    1.2090   -5.2150 ho        1 MOL      0.426881
    144 N13        -6.3890   -0.2780    0.1170 n         1 MOL      0.196101
    145 C48        -6.5840   -1.7250    0.2160 c3        1 MOL     -0.193634
    146 C49        -5.6340   -2.3790    1.2300 c         1 MOL      0.337912
    147 O21        -5.8610   -3.4280    1.7560 o         1 MOL     -0.508271
    148 C50        -6.4000   -2.4100   -1.1810 c3        1 MOL      0.428847
    149 C51        -7.2030   -1.8000   -2.3540 c3        1 MOL     -0.464351
    150 C52        -8.6770   -2.1600   -2.3350 c         1 MOL      0.841453
    151 O22        -9.0910   -2.9350   -3.2890 o         1 MOL     -0.762334
    152 O23        -9.4480   -1.8450   -1.4140 o         1 MOL     -0.762334
    153 H65        -5.9720    0.0500   -0.7470 hn        1 MOL      0.138449
    154 H66        -7.5780   -1.8990    0.6490 h1        1 MOL      0.118137
    155 H67        -6.6300   -3.4630   -1.0160 hc        1 MOL     -0.081791
    156 H68        -5.3280   -2.3950   -1.3780 hc        1 MOL     -0.081791
    157 H69        -6.7970   -2.1700   -3.2930 hc        1 MOL      0.057812
    158 H70        -7.0020   -0.7360   -2.1940 hc        1 MOL      0.057812
    159 N14        -4.5180   -1.7190    1.5130 n         1 MOL     -0.042871
    160 C53        -3.6340   -1.9960    2.6290 c3        1 MOL     -0.092930
    161 C54        -4.0770   -1.5040    3.9770 c         1 MOL      0.519324
    162 O24        -3.9030   -2.2840    4.9060 o         1 MOL     -0.563921
    163 C55        -2.2320   -1.4830    2.3590 c3        1 MOL     -0.094266
    164 C56        -1.5990   -2.0880    1.0130 c3        1 MOL     -0.159859
    165 C57        -0.2170   -1.5030    0.6220 c         1 MOL      0.922166
    166 O25         0.6580   -2.1220   -0.0100 o         1 MOL     -0.828087
    167 O26        -0.0730   -0.2790    0.6200 o         1 MOL     -0.828087
    168 H71        -4.1710   -0.9870    0.9090 hn        1 MOL     -0.006047
    169 H72        -3.4600   -3.0700    2.6800 h1        1 MOL      0.070732
    170 H73        -1.6130   -1.6600    3.2290 hc        1 MOL      0.058052
    171 H74        -2.2550   -0.3970    2.4300 hc        1 MOL      0.058052
    172 H75        -2.2750   -2.0490    0.1650 hc        1 MOL      0.047028
    173 H76        -1.4240   -3.1560    1.1330 hc        1 MOL      0.047028
    174 N15        -4.5880   -0.2490    4.0150 n         1 MOL     -0.133908
    175 C58        -4.9630    0.3570    5.3170 c3        1 MOL     -0.245117
    176 H77        -5.0380    1.4390    5.2050 h1        1 MOL      0.087662
    177 H78        -5.9240   -0.0420    5.6400 h1        1 MOL      0.087662
    178 H79        -4.2020    0.1220    6.0600 h1        1 MOL      0.087662
    179 H80        -4.6220    0.2920    3.1590 hn        1 MOL      0.122995
    180 Ca1         2.6030   -0.0880    0.1110 Ca        1 MOL      1.780217
    181 O27         2.2460   -0.8560    2.9210 oh        1 MOL     -0.879762
    182 O28         1.4280    1.6910   -1.4900 oh        1 MOL     -0.879762
    183 H81         3.0110   -0.5600    3.4190 ho        1 MOL      0.407552
    184 H82         1.2790    1.2750   -2.3480 ho        1 MOL      0.407552
    185 H83         1.7810   -1.4520    3.5140 ho        1 MOL      0.407552
    186 H84         2.1800    2.2700   -1.6400 ho        1 MOL      0.407552
    187 O29         5.4280    0.2210    1.3510 oh        1 MOL     -0.879762
    188 H85         5.5400    0.5790    2.2380 ho        1 MOL      0.407552
    189 H86         5.5470   -0.7230    1.4610 ho        1 MOL      0.407552
@<TRIPOS>BOND
     1    1    2 1   
     2    1    4 1   
     3    1    5 1   
     4    1    6 1   
     5    2    3 2   
     6    2    7 1   
     7    7    8 1   
     8    7   15 1   
     9    8    9 1   
    10    8   11 1   
    11    8   16 1   
    12    9   10 2   
    13    9   19 1   
    14   11   12 1   
    15   11   17 1   
    16   11   18 1   
    17   12   13 1   
    18   12   14 1   
    19   19   20 1   
    20   19   27 1   
    21   20   21 1   
    22   20   23 1   
    23   20   28 1   
    24   21   22 2   
    25   21   38 1   
    26   23   24 1   
    27   23   25 1   
    28   23   29 1   
    29   24   26 1   
    30   24   30 1   
    31   24   31 1   
    32   25   32 1   
    33   25   33 1   
    34   25   34 1   
    35   26   35 1   
    36   26   36 1   
    37   26   37 1   
    38   38   39 1   
    39   38   46 1   
    40   39   40 1   
    41   39   42 1   
    42   39   47 1   
    43   40   41 2   
    44   40   50 1   
    45   42   43 1   
    46   42   48 1   
    47   42   49 1   
    48   43   44 1   
    49   43   45 1   
    50   50   51 1   
    51   50   54 1   
    52   51   52 1   
    53   51   55 1   
    54   51   56 1   
    55   52   53 2   
    56   52   57 1   
    57   57   58 1   
    58   57   65 1   
    59   58   59 1   
    60   58   61 1   
    61   58   66 1   
    62   59   60 2   
    63   59   69 1   
    64   61   62 1   
    65   61   67 1   
    66   61   68 1   
    67   62   63 1   
    68   62   64 1   
    69   69   70 1   
    70   69   73 1   
    71   70   71 1   
    72   70   74 1   
    73   70   75 1   
    74   71   72 2   
    75   71   76 1   
    76   76   77 1   
    77   76   85 1   
    78   77   78 1   
    79   77   80 1   
    80   77   86 1   
    81   78   79 2   
    82   78   93 1   
    83   80   81 1   
    84   80   87 1   
    85   80   88 1   
    86   81   82 1   
    87   81   89 1   
    88   81   90 1   
    89   82   83 1   
    90   82   84 2   
    91   83   91 1   
    92   83   92 1   
    93   93   94 1   
    94   93  100 1   
    95   94   95 1   
    96   94   97 1   
    97   94  101 1   
    98   95   96 2   
    99   95  109 1   
   100   97   98 1   
   101   97   99 1   
   102   97  102 1   
   103   98  103 1   
   104   98  104 1   
   105   98  105 1   
   106   99  106 1   
   107   99  107 1   
   108   99  108 1   
   109  109  110 1   
   110  109  117 1   
   111  110  111 1   
   112  110  113 1   
   113  110  118 1   
   114  111  112 2   
   115  111  123 1   
   116  113  114 1   
   117  113  119 1   
   118  113  120 1   
   119  114  115 1   
   120  114  116 2   
   121  115  121 1   
   122  115  122 1   
   123  123  124 1   
   124  123  135 1   
   125  124  125 1   
   126  124  127 1   
   127  124  136 1   
   128  125  126 2   
   129  125  144 1   
   130  127  128 1   
   131  127  137 1   
   132  127  138 1   
   133  128  129 ar  
   134  128  130 ar  
   135  129  131 ar  
   136  129  139 1   
   137  130  132 ar  
   138  130  140 1   
   139  131  133 ar  
   140  131  141 1   
   141  132  133 ar  
   142  132  142 1   
   143  133  134 1   
   144  134  143 1   
   145  144  145 1   
   146  144  153 1   
   147  145  146 1   
   148  145  148 1   
   149  145  154 1   
   150  146  147 2   
   151  146  159 1   
   152  148  149 1   
   153  148  155 1   
   154  148  156 1   
   155  149  150 1   
   156  149  157 1   
   157  149  158 1   
   158  150  151 1   
   159  150  152 1   
   160  159  160 1   
   161  159  168 1   
   162  160  161 1   
   163  160  163 1   
   164  160  169 1   
   165  161  162 2   
   166  161  174 1   
   167  163  164 1   
   168  163  170 1   
   169  163  171 1   
   170  164  165 1   
   171  164  172 1   
   172  164  173 1   
   173  165  166 1   
   174  165  167 1   
   175  174  175 1   
   176  174  179 1   
   177  175  176 1   
   178  175  177 1   
   179  175  178 1   
   180  181  183 1   
   181  181  185 1   
   182  182  184 1   
   183  182  186 1   
   184  187  188 1   
   185  187  189 1   
@<TRIPOS>SUBSTRUCTURE
     1 MOL         1 TEMP              0 ****  ****    0 ROOT
