@<TRIPOS>MOLECULE
MOL
  179   176     1     0     0
SMALL
resp


@<TRIPOS>ATOM
      1 C1          1.6640    2.1700    6.4870 c3        1 MOL     -0.268389
      2 C2          1.1600    1.9100    5.0530 c         1 MOL      0.790558
      3 O1          1.9270    1.8170    4.1290 o         1 MOL     -0.604614
      4 H1          2.1230    3.1570    6.5370 hc        1 MOL      0.068371
      5 H2          0.8250    2.1250    7.1820 hc        1 MOL      0.068371
      6 H3          2.4010    1.4140    6.7560 hc        1 MOL      0.068371
      7 N1         -0.1620    1.8330    4.7620 n         1 MOL     -0.662985
      8 C3         -0.6740    1.8980    3.4220 c3        1 MOL     -0.025475
      9 C4         -0.5760    3.2810    2.7790 c         1 MOL      0.668920
     10 O2         -1.0050    4.2460    3.4600 o         1 MOL     -0.601552
     11 C5         -2.1100    1.3030    3.4250 c3        1 MOL     -0.123408
     12 C6         -2.7830    1.0960    2.0560 c         1 MOL      0.715664
     13 O3         -2.1880    1.6020    1.0610 o         1 MOL     -0.757305
     14 O4         -3.7830    0.3920    1.8820 o         1 MOL     -0.757305
     15 H4         -0.8430    1.8330    5.5200 hn        1 MOL      0.335716
     16 H5         -0.0250    1.2580    2.8350 h1        1 MOL      0.087103
     17 H6         -2.6800    1.9430    4.0840 hc        1 MOL      0.050598
     18 H7         -2.0960    0.3400    3.9290 hc        1 MOL      0.050598
     19 N2         -0.1210    3.4970    1.5700 n         1 MOL     -0.380379
     20 C7         -0.0520    4.7900    0.9290 c3        1 MOL      0.019960
     21 C8         -1.4080    5.3530    0.4410 c         1 MOL      0.507926
     22 O5         -1.5580    6.5460    0.4970 o         1 MOL     -0.569932
     23 C9          0.7440    4.5850   -0.3150 c3        1 MOL     -0.192832
     24 C10         0.7470    5.7730   -1.3010 c3        1 MOL     -0.089179
     25 C11         1.6030    5.5580   -2.5650 c3        1 MOL      0.001002
     26 C12         1.8700    6.8070   -3.4100 c3        1 MOL     -0.202609
     27 N3          0.6240    7.4600   -3.7900 n4        1 MOL     -0.162050
     28 H8          0.1710    2.6470    1.1070 hn        1 MOL      0.232834
     29 H9          0.3540    5.5220    1.6340 h1        1 MOL      0.094006
     30 H10         0.4260    3.6780   -0.8410 hc        1 MOL      0.141825
     31 H11         1.7940    4.5030   -0.0330 hc        1 MOL      0.141825
     32 H12         0.9820    6.7040   -0.7890 hc        1 MOL      0.039390
     33 H13        -0.1760    6.0020   -1.8300 hc        1 MOL      0.039390
     34 H14         1.2160    4.7730   -3.2140 hc        1 MOL      0.030474
     35 H15         2.6010    5.1620   -2.3570 hc        1 MOL      0.030474
     36 H16         2.3480    6.4820   -4.3320 hx        1 MOL      0.152897
     37 H17         2.3590    7.5150   -2.7410 hx        1 MOL      0.152897
     38 H18         0.1860    7.7420   -2.9230 hn        1 MOL      0.281947
     39 H19         0.7910    8.2880   -4.3470 hn        1 MOL      0.281947
     40 H20        -0.0220    6.7980   -4.1870 hn        1 MOL      0.281947
     41 N4         -2.3870    4.4910    0.0930 n         1 MOL     -0.304762
     42 C13        -3.6220    4.8950   -0.6300 c3        1 MOL     -0.035427
     43 C14        -4.8980    4.1240   -0.1070 c         1 MOL      0.494893
     44 O6         -5.9280    4.1120   -0.7690 o         1 MOL     -0.522804
     45 C15        -3.4320    4.7030   -2.1770 c3        1 MOL     -0.059527
     46 C16        -3.2470    3.2180   -2.6130 c         1 MOL      0.694103
     47 O7         -3.3290    2.8610   -3.7670 o         1 MOL     -0.714995
     48 O8         -3.0150    2.3480   -1.7690 o         1 MOL     -0.714995
     49 H21        -2.2390    3.5120    0.2890 hn        1 MOL      0.230438
     50 H22        -3.7730    5.9540   -0.4330 h1        1 MOL      0.100260
     51 H23        -2.4950    5.1860   -2.4610 hc        1 MOL     -0.001536
     52 H24        -4.1970    5.2610   -2.7080 hc        1 MOL     -0.001536
     53 N5         -4.8400    3.5270    1.0960 n         1 MOL     -0.344663
     54 C17        -5.9610    2.8200    1.7600 c3        1 MOL     -0.016281
     55 C18        -6.5370    1.6440    0.9090 c         1 MOL      0.529977
     56 O9         -7.6700    1.2270    1.1850 o         1 MOL     -0.604392
     57 H25        -3.9240    3.5310    1.5090 hn        1 MOL      0.215510
     58 H26        -6.8140    3.4700    1.9800 h1        1 MOL      0.077335
     59 H27        -5.5880    2.4010    2.6980 h1        1 MOL      0.077335
     60 N6         -5.8840    1.0500   -0.1010 n         1 MOL     -0.187097
     61 C19        -6.4310   -0.0470   -0.8730 c3        1 MOL     -0.131519
     62 C20        -6.3130   -1.4590   -0.2100 c         1 MOL      0.219243
     63 O10        -6.6580   -2.4790   -0.8280 o         1 MOL     -0.419534
     64 C21        -5.9390    0.1080   -2.2750 c3        1 MOL     -0.426411
     65 C22        -4.6060   -0.6440   -2.4340 c         1 MOL      0.721197
     66 N7         -4.2900   -1.1880   -3.5620 n         1 MOL     -0.714809
     67 O11        -3.6900   -0.6230   -1.6260 o         1 MOL     -0.641719
     68 H28        -4.9420    1.3940   -0.2500 hn        1 MOL      0.213927
     69 H29        -7.5170    0.0200   -0.8790 h1        1 MOL      0.191608
     70 H30        -5.7210    1.1280   -2.5960 hc        1 MOL      0.183125
     71 H31        -6.6980   -0.3010   -2.9400 hc        1 MOL      0.183125
     72 H32        -4.9590   -1.3260   -4.2960 hn        1 MOL      0.338946
     73 H33        -3.4670   -1.7730   -3.5340 hn        1 MOL      0.338946
     74 N8         -5.9060   -1.5210    1.0150 n         1 MOL     -0.005433
     75 C23        -5.8070   -2.7860    1.8320 c3        1 MOL     -0.425136
     76 C24        -4.5380   -3.5960    1.5920 c         1 MOL      0.755202
     77 O12        -4.4680   -4.7430    2.0850 o         1 MOL     -0.572600
     78 H34        -5.7370   -0.6430    1.4890 hn        1 MOL      0.246188
     79 H35        -6.6990   -3.3890    1.6480 h1        1 MOL      0.166033
     80 H36        -5.7740   -2.4840    2.8800 h1        1 MOL      0.166033
     81 N9         -3.4570   -3.0310    1.0080 n         1 MOL     -0.575595
     82 C25        -2.2520   -3.8010    0.6850 c3        1 MOL      0.073923
     83 C26        -1.0170   -2.9070    0.6970 c         1 MOL      0.675075
     84 O13        -1.1760   -1.7070    0.4290 o         1 MOL     -0.644104
     85 C27        -2.5440   -4.3670   -0.7470 c3        1 MOL     -0.008457
     86 C28        -3.7660   -5.1870   -0.9470 ca        1 MOL     -0.027099
     87 C29        -4.7900   -4.6840   -1.6530 ca        1 MOL     -0.053750
     88 C30        -3.8180   -6.4750   -0.4320 ca        1 MOL     -0.053750
     89 C31        -5.9490   -5.4050   -1.9190 ca        1 MOL     -0.390836
     90 C32        -4.9250   -7.2930   -0.6170 ca        1 MOL     -0.390836
     91 C33        -6.0560   -6.7350   -1.3230 ca        1 MOL      0.454809
     92 O14        -7.2390   -7.3550   -1.5460 oh        1 MOL     -0.523236
     93 H37        -3.4930   -2.0370    0.8120 hn        1 MOL      0.363449
     94 H38        -1.9820   -4.6970    1.2470 h1        1 MOL      0.048994
     95 H39        -1.7550   -5.0760   -0.9960 hc        1 MOL     -0.012413
     96 H40        -2.5430   -3.4980   -1.4130 hc        1 MOL     -0.012413
     97 H41        -4.7710   -3.6600   -2.0040 ha        1 MOL      0.118609
     98 H42        -2.9600   -6.8730    0.0980 ha        1 MOL      0.118609
     99 H43        -6.8470   -5.0740   -2.4150 ha        1 MOL      0.170380
    100 H44        -5.0000   -8.2780   -0.1870 ha        1 MOL      0.170380
    101 H45        -7.3540   -8.2670   -1.2810 ho        1 MOL      0.384184
    102 N10         0.1770   -3.4510    0.9660 n         1 MOL     -0.549539
    103 C34         1.4210   -2.6380    0.9020 c3        1 MOL     -0.248000
    104 C35         2.5130   -3.4690    0.2150 c         1 MOL      0.498490
    105 O15         2.9730   -4.5360    0.6320 o         1 MOL     -0.515968
    106 C36         1.8440   -2.1230    2.3690 c3        1 MOL      0.222749
    107 C37         2.7600   -3.0930    3.3190 c3        1 MOL     -0.206437
    108 C38         0.7240   -1.6550    3.2960 c3        1 MOL      0.073121
    109 C39         3.2280   -2.5060    4.6650 c3        1 MOL     -0.404677
    110 H46         0.2480   -4.4530    0.9960 hn        1 MOL      0.364091
    111 H47         1.2510   -1.7840    0.2350 h1        1 MOL      0.210919
    112 H48         2.4820   -1.2510    2.2260 hc        1 MOL      0.022584
    113 H49         3.6990   -3.2980    2.8070 hc        1 MOL      0.085635
    114 H50         2.1360   -3.9600    3.4870 hc        1 MOL      0.085635
    115 H51         1.0170   -1.5000    4.3410 hc        1 MOL     -0.014371
    116 H52         0.4680   -0.7030    2.8250 hc        1 MOL     -0.014371
    117 H53        -0.0810   -2.3860    3.2250 hc        1 MOL     -0.014371
    118 H54         2.4260   -2.6820    5.3800 hc        1 MOL      0.119438
    119 H55         4.1270   -3.0450    4.9520 hc        1 MOL      0.119438
    120 H56         3.4740   -1.4360    4.6430 hc        1 MOL      0.119438
    121 N11         3.0630   -2.9710   -0.9160 n         1 MOL     -0.320297
    122 C40         4.2960   -3.3610   -1.6180 c3        1 MOL     -0.029902
    123 C41         5.5780   -3.1200   -0.8510 c         1 MOL      0.486609
    124 O16         5.6350   -2.3610    0.1290 o         1 MOL     -0.392565
    125 C42         4.4340   -2.7670   -3.0700 c3        1 MOL     -0.282090
    126 O17         4.6290   -1.3750   -3.0160 oh        1 MOL     -0.401925
    127 H57         2.6570   -2.1340   -1.3150 hn        1 MOL      0.239815
    128 H58         4.2580   -4.4470   -1.6670 h1        1 MOL      0.097889
    129 H59         3.4880   -2.9420   -3.5680 h1        1 MOL      0.154720
    130 H60         5.1370   -3.3010   -3.7030 h1        1 MOL      0.154720
    131 H61         4.3300   -0.9690   -3.8390 ho        1 MOL      0.382418
    132 N12         6.7100   -3.6120   -1.3300 n         1 MOL     -0.448401
    133 C43         8.0240   -3.2340   -0.8860 c3        1 MOL      0.181804
    134 C44         8.4660   -1.7790   -1.1560 c         1 MOL      0.470306
    135 O18         9.3780   -1.2490   -0.5340 o         1 MOL     -0.530029
    136 C45         9.0650   -4.2110   -1.5320 c3        1 MOL     -0.374187
    137 H62         6.5820   -4.2090   -2.1340 hn        1 MOL      0.269172
    138 H63         8.1170   -3.3870    0.1860 h1        1 MOL      0.094871
    139 H64         9.1630   -4.1300   -2.6120 hc        1 MOL      0.112764
    140 H65         9.9910   -3.8720   -1.0710 hc        1 MOL      0.112764
    141 H66         8.7900   -5.2090   -1.1830 hc        1 MOL      0.112764
    142 N13         7.7290   -1.0200   -1.9610 n         1 MOL     -0.379077
    143 C46         7.8370    0.4360   -2.0550 c3        1 MOL      0.126015
    144 C47         6.9950    1.3050   -1.1650 c         1 MOL      0.276618
    145 O19         7.2730    2.4590   -0.8510 o         1 MOL     -0.490925
    146 C48         7.6350    0.8020   -3.5540 c3        1 MOL     -0.192198
    147 H67         7.0150   -1.4100   -2.5700 hn        1 MOL      0.211407
    148 H68         8.8480    0.7630   -1.8130 h1        1 MOL      0.114478
    149 H69         8.1110    0.0480   -4.1760 hc        1 MOL      0.047201
    150 H70         6.5670    0.6710   -3.7630 hc        1 MOL      0.047201
    151 H71         8.1480    1.7580   -3.6940 hc        1 MOL      0.047201
    152 N14         5.9240    0.7390   -0.6210 n         1 MOL     -0.102637
    153 C49         5.2420    1.3460    0.5200 c3        1 MOL     -0.166846
    154 C50         6.0240    0.8950    1.8280 c         1 MOL      0.473544
    155 O20         6.1660    1.7050    2.7260 o         1 MOL     -0.528128
    156 C51         3.8510    0.8050    0.6440 c3        1 MOL      0.281971
    157 C52         3.1410    1.2670   -0.6460 c3        1 MOL     -0.101017
    158 C53         1.6560    0.7850   -0.5330 c         1 MOL      0.644666
    159 O21         1.3050   -0.0720   -1.4340 o         1 MOL     -0.743843
    160 O22         0.7790    1.3100    0.2450 o         1 MOL     -0.743843
    161 H72         5.5740   -0.1600   -0.8930 hn        1 MOL      0.280629
    162 H73         5.2100    2.4370    0.4470 h1        1 MOL      0.126942
    163 H74         3.3240    1.0760    1.5610 hc        1 MOL     -0.038663
    164 H75         3.9310   -0.2780    0.5970 hc        1 MOL     -0.038663
    165 H76         3.6210    0.9360   -1.5600 hc        1 MOL     -0.043522
    166 H77         3.1560    2.3490   -0.5450 hc        1 MOL     -0.043522
    167 N15         6.6870   -0.3030    1.8980 n         1 MOL     -0.091745
    168 C54         7.4320   -0.7090    3.0560 c3        1 MOL     -0.426246
    169 H78         7.8410    0.1710    3.5530 h1        1 MOL      0.146152
    170 H79         6.7730   -1.2400    3.7440 h1        1 MOL      0.146152
    171 H80         8.2460   -1.3670    2.7530 h1        1 MOL      0.146152
    172 H81         6.5700   -0.9820    1.1570 hn        1 MOL      0.089636
    173 Ca1        -1.3280    0.4960   -1.0040 Ca        1 MOL      1.787789
    174 O23        -0.4500    2.1510   -2.9470 oh        1 MOL     -0.811652
    175 H82         0.2560    2.0860   -3.5960 ho        1 MOL      0.398559
    176 H83        -1.1890    2.5100   -3.4310 ho        1 MOL      0.398559
    177 O24        -1.0830   -1.0540   -3.0670 oh        1 MOL     -0.811652
    178 H84        -0.6400   -1.8940   -3.1480 ho        1 MOL      0.398559
    179 H85        -1.1250   -0.7080   -3.9540 ho        1 MOL      0.398559
@<TRIPOS>BOND
     1    1    2 1   
     2    1    4 1   
     3    1    5 1   
     4    1    6 1   
     5    2    3 2   
     6    2    7 1   
     7    7    8 1   
     8    7   15 1   
     9    8    9 1   
    10    8   11 1   
    11    8   16 1   
    12    9   10 2   
    13    9   19 1   
    14   11   12 1   
    15   11   17 1   
    16   11   18 1   
    17   12   13 1   
    18   12   14 1   
    19   19   20 1   
    20   19   28 1   
    21   20   21 1   
    22   20   23 1   
    23   20   29 1   
    24   21   22 2   
    25   21   41 1   
    26   23   24 1   
    27   23   30 1   
    28   23   31 1   
    29   24   25 1   
    30   24   32 1   
    31   24   33 1   
    32   25   26 1   
    33   25   34 1   
    34   25   35 1   
    35   26   27 1   
    36   26   36 1   
    37   26   37 1   
    38   27   38 1   
    39   27   39 1   
    40   27   40 1   
    41   41   42 1   
    42   41   49 1   
    43   42   43 1   
    44   42   45 1   
    45   42   50 1   
    46   43   44 2   
    47   43   53 1   
    48   45   46 1   
    49   45   51 1   
    50   45   52 1   
    51   46   47 1   
    52   46   48 1   
    53   53   54 1   
    54   53   57 1   
    55   54   55 1   
    56   54   58 1   
    57   54   59 1   
    58   55   56 2   
    59   55   60 1   
    60   60   61 1   
    61   60   68 1   
    62   61   62 1   
    63   61   64 1   
    64   61   69 1   
    65   62   63 2   
    66   62   74 1   
    67   64   65 1   
    68   64   70 1   
    69   64   71 1   
    70   65   66 1   
    71   65   67 2   
    72   66   72 1   
    73   66   73 1   
    74   74   75 1   
    75   74   78 1   
    76   75   76 1   
    77   75   79 1   
    78   75   80 1   
    79   76   77 2   
    80   76   81 1   
    81   81   82 1   
    82   81   93 1   
    83   82   83 1   
    84   82   85 1   
    85   82   94 1   
    86   83   84 2   
    87   83  102 1   
    88   85   86 1   
    89   85   95 1   
    90   85   96 1   
    91   86   87 ar  
    92   86   88 ar  
    93   87   89 ar  
    94   87   97 1   
    95   88   90 ar  
    96   88   98 1   
    97   89   91 ar  
    98   89   99 1   
    99   90   91 ar  
   100   90  100 1   
   101   91   92 1   
   102   92  101 1   
   103  102  103 1   
   104  102  110 1   
   105  103  104 1   
   106  103  106 1   
   107  103  111 1   
   108  104  105 2   
   109  104  121 1   
   110  106  107 1   
   111  106  108 1   
   112  106  112 1   
   113  107  109 1   
   114  107  113 1   
   115  107  114 1   
   116  108  115 1   
   117  108  116 1   
   118  108  117 1   
   119  109  118 1   
   120  109  119 1   
   121  109  120 1   
   122  121  122 1   
   123  121  127 1   
   124  122  123 1   
   125  122  125 1   
   126  122  128 1   
   127  123  124 2   
   128  123  132 1   
   129  125  126 1   
   130  125  129 1   
   131  125  130 1   
   132  126  131 1   
   133  132  133 1   
   134  132  137 1   
   135  133  134 1   
   136  133  136 1   
   137  133  138 1   
   138  134  135 2   
   139  134  142 1   
   140  136  139 1   
   141  136  140 1   
   142  136  141 1   
   143  142  143 1   
   144  142  147 1   
   145  143  144 1   
   146  143  146 1   
   147  143  148 1   
   148  144  145 2   
   149  144  152 1   
   150  146  149 1   
   151  146  150 1   
   152  146  151 1   
   153  152  153 1   
   154  152  161 1   
   155  153  154 1   
   156  153  156 1   
   157  153  162 1   
   158  154  155 2   
   159  154  167 1   
   160  156  157 1   
   161  156  163 1   
   162  156  164 1   
   163  157  158 1   
   164  157  165 1   
   165  157  166 1   
   166  158  159 1   
   167  158  160 1   
   168  167  168 1   
   169  167  172 1   
   170  168  169 1   
   171  168  170 1   
   172  168  171 1   
   173  174  175 1   
   174  174  176 1   
   175  177  178 1   
   176  177  179 1   
@<TRIPOS>SUBSTRUCTURE
     1 MOL         1 TEMP              0 ****  ****    0 ROOT
