@<TRIPOS>MOLECULE
MOL
  179   176     1     0     0
SMALL
resp


@<TRIPOS>ATOM
      1 C1          1.6910    2.4280    5.6290 c3        1 MOL     -0.265167
      2 C2          0.9650    2.1640    4.2960 c         1 MOL      0.682240
      3 O1          1.6480    1.9290    3.2950 o         1 MOL     -0.564986
      4 H1          1.6080    3.4850    5.8840 hc        1 MOL      0.069886
      5 H2          1.2350    1.8290    6.4170 hc        1 MOL      0.069886
      6 H3          2.7430    2.1590    5.5300 hc        1 MOL      0.069886
      7 N1         -0.3710    2.2270    4.3560 n         1 MOL     -0.653085
      8 C3         -1.1360    1.9770    3.1290 c3        1 MOL      0.058855
      9 C4         -1.3750    3.3340    2.3940 c         1 MOL      0.632177
     10 O2         -2.2520    4.1330    2.7770 o         1 MOL     -0.568679
     11 C5         -2.4280    1.2210    3.5180 c3        1 MOL      0.081235
     12 C6         -3.2050    0.8610    2.2490 c         1 MOL      0.599674
     13 O3         -2.5490    0.7560    1.1500 o         1 MOL     -0.666904
     14 O4         -4.4370    0.7770    2.3240 o         1 MOL     -0.666904
     15 H4         -0.7450    2.5190    5.2390 hn        1 MOL      0.357251
     16 H5         -0.5070    1.3510    2.4920 h1        1 MOL      0.002321
     17 H6         -3.1020    1.8490    4.1010 hc        1 MOL     -0.016472
     18 H7         -2.1850    0.3430    4.1220 hc        1 MOL     -0.016472
     19 N2         -0.5700    3.6010    1.3540 n         1 MOL     -0.388883
     20 C7         -0.5500    4.9300    0.6230 c3        1 MOL     -0.142586
     21 C8         -1.6560    5.1880   -0.4400 c         1 MOL      0.535727
     22 O5         -1.9710    6.3600   -0.6050 o         1 MOL     -0.583162
     23 C9          0.7750    5.1570   -0.1040 c3        1 MOL      0.155947
     24 C10         1.1860    6.5970   -0.3680 c3        1 MOL     -0.192117
     25 C11         2.5360    6.6810   -1.1500 c3        1 MOL      0.107453
     26 C12         3.1070    8.0730   -1.2440 c3        1 MOL     -0.073205
     27 N3          2.0160    9.0250   -1.5710 n4        1 MOL     -0.405669
     28 H8          0.0890    2.8890    1.0830 hn        1 MOL      0.248510
     29 H9         -0.5900    5.7180    1.3720 h1        1 MOL      0.107833
     30 H10         0.7870    4.5380   -0.9960 hc        1 MOL      0.018421
     31 H11         1.5610    4.7020    0.5050 hc        1 MOL      0.018421
     32 H12         1.3730    7.1120    0.5740 hc        1 MOL      0.043783
     33 H13         0.3460    6.9760   -0.9580 hc        1 MOL      0.043783
     34 H14         2.4110    6.3010   -2.1620 hc        1 MOL      0.020062
     35 H15         3.2360    5.9170   -0.8120 hc        1 MOL      0.020062
     36 H16         3.9890    8.0210   -1.8690 hx        1 MOL      0.114254
     37 H17         3.6200    8.3050   -0.3090 hx        1 MOL      0.114254
     38 H18         2.4000    9.9490   -1.6780 hn        1 MOL      0.346016
     39 H19         1.6200    8.8160   -2.4710 hn        1 MOL      0.346016
     40 H20         1.3250    9.0860   -0.8270 hn        1 MOL      0.346016
     41 N4         -2.3550    4.1940   -0.9860 n         1 MOL     -0.259688
     42 C13        -3.3880    4.3580   -1.9560 c3        1 MOL      0.035540
     43 C14        -4.8430    3.9660   -1.4580 c         1 MOL      0.357708
     44 O6         -5.8000    3.9880   -2.2660 o         1 MOL     -0.512289
     45 C15        -2.9800    3.5460   -3.2130 c3        1 MOL     -0.199312
     46 C16        -2.7400    2.0390   -3.0100 c         1 MOL      0.787581
     47 O7         -2.9310    1.4600   -1.9090 o         1 MOL     -0.727744
     48 O8         -2.3740    1.3150   -3.9460 o         1 MOL     -0.727744
     49 H21        -2.1110    3.2380   -0.7720 hn        1 MOL      0.136880
     50 H22        -3.3830    5.4270   -2.1440 h1        1 MOL      0.089232
     51 H23        -2.1790    4.0120   -3.7880 hc        1 MOL      0.060791
     52 H24        -3.8290    3.6620   -3.8970 hc        1 MOL      0.060791
     53 N5         -4.9850    3.4360   -0.2450 n         1 MOL     -0.050474
     54 C17        -6.2380    3.0210    0.3160 c3        1 MOL     -0.399566
     55 C18        -6.7540    1.5750   -0.1420 c         1 MOL      0.608940
     56 O9         -7.9560    1.2320    0.1310 o         1 MOL     -0.595053
     57 H25        -4.1890    3.4820    0.3710 hn        1 MOL      0.206488
     58 H26        -7.0200    3.6700   -0.0800 h1        1 MOL      0.161841
     59 H27        -6.1380    2.9030    1.3910 h1        1 MOL      0.161841
     60 N6         -5.8960    0.7530   -0.7250 n         1 MOL     -0.190166
     61 C19        -6.3390   -0.5190   -1.2590 c3        1 MOL     -0.286598
     62 C20        -6.4540   -1.7370   -0.3140 c         1 MOL      0.568120
     63 O10        -6.6380   -2.8550   -0.7340 o         1 MOL     -0.526783
     64 C21        -5.4340   -0.7030   -2.4780 c3        1 MOL     -0.158404
     65 C22        -4.1550   -1.4100   -2.3190 c         1 MOL      0.603189
     66 N7         -3.5380   -1.7920   -3.3880 n         1 MOL     -0.769971
     67 O11        -3.6450   -1.5460   -1.2270 o         1 MOL     -0.380473
     68 H28        -4.9410    1.0780   -0.7640 hn        1 MOL      0.133114
     69 H29        -7.3360   -0.3470   -1.6750 h1        1 MOL      0.171254
     70 H30        -5.2090    0.2140   -3.0160 hc        1 MOL      0.097403
     71 H31        -5.9980   -1.2590   -3.2250 hc        1 MOL      0.097403
     72 H32        -3.9080   -1.5430   -4.3060 hn        1 MOL      0.345744
     73 H33        -2.6250   -2.2040   -3.2670 hn        1 MOL      0.345744
     74 N8         -6.2490   -1.4580    0.9750 n         1 MOL     -0.355040
     75 C23        -6.3270   -2.4950    2.0900 c3        1 MOL     -0.117847
     76 C24        -5.0650   -3.3180    2.4090 c         1 MOL      0.537815
     77 O12        -5.0950   -4.1220    3.3240 o         1 MOL     -0.569591
     78 H34        -6.0020   -0.5180    1.2340 hn        1 MOL      0.327922
     79 H35        -7.1340   -3.1770    1.8060 h1        1 MOL      0.107105
     80 H36        -6.6420   -1.9760    3.0010 h1        1 MOL      0.107105
     81 N9         -3.9280   -3.0780    1.7400 n         1 MOL     -0.112563
     82 C25        -2.7060   -3.8100    1.9450 c3        1 MOL     -0.066941
     83 C26        -1.4030   -3.0410    1.7610 c         1 MOL      0.897652
     84 O13        -1.4730   -2.0260    1.0780 o         1 MOL     -0.713102
     85 C27        -2.7290   -5.1760    1.1500 c3        1 MOL     -0.103201
     86 C28        -2.4570   -5.1610   -0.3210 ca        1 MOL      0.014292
     87 C29        -1.2170   -5.5260   -0.8220 ca        1 MOL     -0.078899
     88 C30        -3.4920   -4.7740   -1.1890 ca        1 MOL     -0.078899
     89 C31        -0.9640   -5.6080   -2.1770 ca        1 MOL     -0.300670
     90 C32        -3.2170   -4.9280   -2.5950 ca        1 MOL     -0.300670
     91 C33        -1.9170   -5.2680   -3.0970 ca        1 MOL      0.364213
     92 O14        -1.6120   -5.2120   -4.4230 oh        1 MOL     -0.575152
     93 H37        -3.9640   -2.4280    0.9670 hn        1 MOL     -0.001784
     94 H38        -2.6530   -4.0560    2.9980 h1        1 MOL      0.050659
     95 H39        -3.6790   -5.7100    1.2630 hc        1 MOL      0.058274
     96 H40        -2.0210   -5.8790    1.5660 hc        1 MOL      0.058274
     97 H41        -0.3590   -5.8350   -0.2300 ha        1 MOL      0.134983
     98 H42        -4.5000   -4.5390   -0.8690 ha        1 MOL      0.134983
     99 H43         0.0220   -5.8520   -2.5310 ha        1 MOL      0.140507
    100 H44        -4.0060   -4.8070   -3.3160 ha        1 MOL      0.140507
    101 H45        -2.3360   -5.0220   -5.0300 ho        1 MOL      0.419832
    102 N10        -0.2920   -3.6000    2.2610 n         1 MOL     -0.763785
    103 C34         1.0090   -3.0210    2.0980 c3        1 MOL      0.171005
    104 C35         1.9500   -3.7680    0.9730 c         1 MOL      0.455367
    105 O15         1.9170   -4.9800    0.9040 o         1 MOL     -0.527581
    106 C36         1.8650   -2.8770    3.3720 c3        1 MOL      0.210606
    107 C37         1.1040   -2.6620    4.6320 c3        1 MOL     -0.092792
    108 C38         3.1170   -1.9130    3.2720 c3        1 MOL     -0.576488
    109 C39         0.2940   -1.3530    4.5990 c3        1 MOL     -0.036897
    110 H46        -0.3690   -4.4580    2.7810 hn        1 MOL      0.385261
    111 H47         0.8360   -2.0550    1.6180 h1        1 MOL      0.028519
    112 H48         2.2630   -3.8740    3.5370 hc        1 MOL     -0.007139
    113 H49         1.6600   -2.6640    5.5700 hc        1 MOL      0.017601
    114 H50         0.4220   -3.5050    4.7610 hc        1 MOL      0.017601
    115 H51         3.4610   -1.6680    4.2760 hc        1 MOL      0.148166
    116 H52         3.9160   -2.4280    2.7440 hc        1 MOL      0.148166
    117 H53         2.8590   -0.9810    2.7720 hc        1 MOL      0.148166
    118 H54         0.8370   -0.7620    3.8570 hc        1 MOL      0.023418
    119 H55        -0.6650   -1.4870    4.0930 hc        1 MOL      0.023418
    120 H56         0.2470   -0.8620    5.5670 hc        1 MOL      0.023418
    121 N11         2.7490   -3.0050    0.1830 n         1 MOL     -0.370847
    122 C40         3.6940   -3.4300   -0.9020 c3        1 MOL      0.031259
    123 C41         5.0730   -2.9970   -0.5180 c         1 MOL      0.498947
    124 O16         5.2480   -2.0720    0.3140 o         1 MOL     -0.459793
    125 C42         3.2510   -2.9510   -2.1790 c3        1 MOL      0.073262
    126 O17         3.0450   -1.5230   -2.1820 oh        1 MOL     -0.515104
    127 H57         2.7150   -2.0060    0.3810 hn        1 MOL      0.300501
    128 H58         3.7090   -4.5160   -1.0430 h1        1 MOL      0.066498
    129 H59         2.3890   -3.4410   -2.6350 h1        1 MOL      0.046179
    130 H60         4.0610   -3.1600   -2.8820 h1        1 MOL      0.046179
    131 H61         2.3550   -1.3140   -1.5530 ho        1 MOL      0.303878
    132 N12         6.1540   -3.5530   -1.0790 n         1 MOL     -0.441784
    133 C43         7.4910   -3.0780   -0.7500 c3        1 MOL      0.131084
    134 C44         7.8100   -1.5710   -1.0390 c         1 MOL      0.403362
    135 O18         8.6430   -0.9650   -0.3970 o         1 MOL     -0.488517
    136 C45         8.4830   -4.0400   -1.3840 c3        1 MOL     -0.426043
    137 H62         5.9930   -4.2560   -1.7840 hn        1 MOL      0.283439
    138 H63         7.6140   -3.1870    0.3220 h1        1 MOL      0.099512
    139 H64         8.5570   -4.9670   -0.8190 hc        1 MOL      0.128232
    140 H65         8.2220   -4.3000   -2.4040 hc        1 MOL      0.128232
    141 H66         9.4690   -3.5880   -1.4860 hc        1 MOL      0.128232
    142 N13         7.1470   -1.0220   -2.0500 n         1 MOL     -0.248628
    143 C46         7.2540    0.3870   -2.4800 c3        1 MOL      0.033678
    144 C47         6.6070    1.4110   -1.5050 c         1 MOL      0.298407
    145 O19         6.8940    2.6440   -1.5220 o         1 MOL     -0.533744
    146 C48         6.7280    0.4880   -3.8800 c3        1 MOL     -0.233417
    147 H67         6.5890   -1.5370   -2.7170 hn        1 MOL      0.223848
    148 H68         8.3300    0.5740   -2.4210 h1        1 MOL      0.095231
    149 H69         7.1720   -0.3050   -4.4900 hc        1 MOL      0.076598
    150 H70         5.6430    0.4040   -3.8140 hc        1 MOL      0.076598
    151 H71         6.9310    1.4380   -4.3810 hc        1 MOL      0.076598
    152 N14         5.6750    0.9590   -0.6850 n         1 MOL      0.119357
    153 C49         4.9370    1.7590    0.3060 c3        1 MOL     -0.149432
    154 C50         5.6780    1.5400    1.5940 c         1 MOL      0.431105
    155 O20         5.9380    2.5270    2.2690 o         1 MOL     -0.527814
    156 C51         3.5810    1.0620    0.3940 c3        1 MOL      0.262534
    157 C52         2.7550    1.4180   -0.8390 c3        1 MOL     -0.077359
    158 C53         1.3240    0.9380   -0.6520 c         1 MOL      0.764764
    159 O21         1.1230   -0.2690   -0.5350 o         1 MOL     -0.723152
    160 O22         0.3630    1.7470   -0.6160 o         1 MOL     -0.723152
    161 H72         5.4040    0.0020   -0.8470 hn        1 MOL      0.050508
    162 H73         4.8880    2.8200    0.0330 h1        1 MOL      0.121139
    163 H74         3.0980    1.4420    1.2990 hc        1 MOL     -0.058044
    164 H75         3.6700   -0.0250    0.4890 hc        1 MOL     -0.058044
    165 H76         3.2670    0.9070   -1.6600 hc        1 MOL     -0.035595
    166 H77         2.7990    2.4720   -1.1330 hc        1 MOL     -0.035595
    167 N15         6.2560    0.3430    1.9020 n         1 MOL     -0.161089
    168 C54         7.1730    0.2500    3.0380 c3        1 MOL     -0.226115
    169 H78         8.1870    0.0810    2.6740 h1        1 MOL      0.098452
    170 H79         7.1420    1.1780    3.6080 h1        1 MOL      0.098452
    171 H80         6.8750   -0.5810    3.6790 h1        1 MOL      0.098452
    172 H81         6.2070   -0.4070    1.2330 hn        1 MOL      0.142976
    173 Ca1        -1.3610   -0.2130   -0.8460 Ca        1 MOL      1.670911
    174 O23        -1.0150   -2.7360   -2.1540 oh        1 MOL     -0.823786
    175 H82        -0.9910   -3.6880   -1.9920 ho        1 MOL      0.391406
    176 H83        -0.5150   -2.6150   -2.9630 ho        1 MOL      0.391406
    177 O24        -0.1570   -0.1770   -3.1940 oh        1 MOL     -0.823786
    178 H84        -0.7900    0.3590   -3.6600 ho        1 MOL      0.391406
    179 H85         0.0590   -0.8850   -3.8020 ho        1 MOL      0.391406
@<TRIPOS>BOND
     1    1    2 1   
     2    1    4 1   
     3    1    5 1   
     4    1    6 1   
     5    2    3 2   
     6    2    7 1   
     7    7    8 1   
     8    7   15 1   
     9    8    9 1   
    10    8   11 1   
    11    8   16 1   
    12    9   10 2   
    13    9   19 1   
    14   11   12 1   
    15   11   17 1   
    16   11   18 1   
    17   12   13 1   
    18   12   14 1   
    19   19   20 1   
    20   19   28 1   
    21   20   21 1   
    22   20   23 1   
    23   20   29 1   
    24   21   22 2   
    25   21   41 1   
    26   23   24 1   
    27   23   30 1   
    28   23   31 1   
    29   24   25 1   
    30   24   32 1   
    31   24   33 1   
    32   25   26 1   
    33   25   34 1   
    34   25   35 1   
    35   26   27 1   
    36   26   36 1   
    37   26   37 1   
    38   27   38 1   
    39   27   39 1   
    40   27   40 1   
    41   41   42 1   
    42   41   49 1   
    43   42   43 1   
    44   42   45 1   
    45   42   50 1   
    46   43   44 2   
    47   43   53 1   
    48   45   46 1   
    49   45   51 1   
    50   45   52 1   
    51   46   47 1   
    52   46   48 1   
    53   53   54 1   
    54   53   57 1   
    55   54   55 1   
    56   54   58 1   
    57   54   59 1   
    58   55   56 2   
    59   55   60 1   
    60   60   61 1   
    61   60   68 1   
    62   61   62 1   
    63   61   64 1   
    64   61   69 1   
    65   62   63 2   
    66   62   74 1   
    67   64   65 1   
    68   64   70 1   
    69   64   71 1   
    70   65   66 1   
    71   65   67 2   
    72   66   72 1   
    73   66   73 1   
    74   74   75 1   
    75   74   78 1   
    76   75   76 1   
    77   75   79 1   
    78   75   80 1   
    79   76   77 2   
    80   76   81 1   
    81   81   82 1   
    82   81   93 1   
    83   82   83 1   
    84   82   85 1   
    85   82   94 1   
    86   83   84 2   
    87   83  102 1   
    88   85   86 1   
    89   85   95 1   
    90   85   96 1   
    91   86   87 ar  
    92   86   88 ar  
    93   87   89 ar  
    94   87   97 1   
    95   88   90 ar  
    96   88   98 1   
    97   89   91 ar  
    98   89   99 1   
    99   90   91 ar  
   100   90  100 1   
   101   91   92 1   
   102   92  101 1   
   103  102  103 1   
   104  102  110 1   
   105  103  104 1   
   106  103  106 1   
   107  103  111 1   
   108  104  105 2   
   109  104  121 1   
   110  106  107 1   
   111  106  108 1   
   112  106  112 1   
   113  107  109 1   
   114  107  113 1   
   115  107  114 1   
   116  108  115 1   
   117  108  116 1   
   118  108  117 1   
   119  109  118 1   
   120  109  119 1   
   121  109  120 1   
   122  121  122 1   
   123  121  127 1   
   124  122  123 1   
   125  122  125 1   
   126  122  128 1   
   127  123  124 2   
   128  123  132 1   
   129  125  126 1   
   130  125  129 1   
   131  125  130 1   
   132  126  131 1   
   133  132  133 1   
   134  132  137 1   
   135  133  134 1   
   136  133  136 1   
   137  133  138 1   
   138  134  135 2   
   139  134  142 1   
   140  136  139 1   
   141  136  140 1   
   142  136  141 1   
   143  142  143 1   
   144  142  147 1   
   145  143  144 1   
   146  143  146 1   
   147  143  148 1   
   148  144  145 2   
   149  144  152 1   
   150  146  149 1   
   151  146  150 1   
   152  146  151 1   
   153  152  153 1   
   154  152  161 1   
   155  153  154 1   
   156  153  156 1   
   157  153  162 1   
   158  154  155 2   
   159  154  167 1   
   160  156  157 1   
   161  156  163 1   
   162  156  164 1   
   163  157  158 1   
   164  157  165 1   
   165  157  166 1   
   166  158  159 1   
   167  158  160 1   
   168  167  168 1   
   169  167  172 1   
   170  168  169 1   
   171  168  170 1   
   172  168  171 1   
   173  174  175 1   
   174  174  176 1   
   175  177  178 1   
   176  177  179 1   
@<TRIPOS>SUBSTRUCTURE
     1 MOL         1 TEMP              0 ****  ****    0 ROOT
