@<TRIPOS>MOLECULE
MOL
  189   185     1     0     0
SMALL
resp


@<TRIPOS>ATOM
      1 C1          0.6960   -2.9750    6.2590 c3        1 MOL     -0.461038
      2 C2          0.8270   -2.6820    4.7450 c         1 MOL      0.722657
      3 O1          0.7090   -1.5490    4.3050 o         1 MOL     -0.591260
      4 H1         -0.3580   -3.0220    6.5300 hc        1 MOL      0.118368
      5 H2          1.1720   -3.9290    6.4870 hc        1 MOL      0.118368
      6 H3          1.1820   -2.1820    6.8260 hc        1 MOL      0.118368
      7 N1          1.0890   -3.7280    3.9840 n         1 MOL     -0.529531
      8 C3          1.6850   -3.6030    2.6020 c3        1 MOL      0.189051
      9 C4          1.4560   -4.8810    1.7210 c         1 MOL      0.452199
     10 O2          1.3200   -6.0370    2.2270 o         1 MOL     -0.572665
     11 C5          3.2440   -3.4550    2.7870 c3        1 MOL     -0.171429
     12 C6          4.0210   -3.3190    1.4670 c         1 MOL      0.696822
     13 O3          3.6380   -2.4950    0.5980 o         1 MOL     -0.632706
     14 O4          4.8640   -4.1650    1.2160 o         1 MOL     -0.632706
     15 H4          1.1570   -4.6620    4.3660 hn        1 MOL      0.293361
     16 H5          1.2560   -2.6940    2.1970 h1        1 MOL     -0.024190
     17 H6          3.7280   -4.1790    3.4380 hc        1 MOL     -0.000177
     18 H7          3.3800   -2.4960    3.2910 hc        1 MOL     -0.000177
     19 N2          1.4520   -4.6570    0.4150 n         1 MOL     -0.140376
     20 C7          1.6490   -5.6450   -0.6640 c3        1 MOL     -0.061582
     21 C8          2.6770   -5.2480   -1.8360 c         1 MOL      0.424465
     22 O5          2.6030   -5.9290   -2.8580 o         1 MOL     -0.559653
     23 C9          0.3060   -6.1080   -1.2040 c3        1 MOL      0.194569
     24 C10        -0.4230   -4.9810   -1.9690 c3        1 MOL     -0.013700
     25 C11        -0.5310   -6.8640   -0.1190 c3        1 MOL     -0.155626
     26 C12        -1.8490   -5.3900   -2.4010 c3        1 MOL     -0.334499
     27 H8          1.4080   -3.6790    0.1370 hn        1 MOL      0.112781
     28 H9          2.1170   -6.5000   -0.1800 h1        1 MOL      0.070452
     29 H10         0.5220   -6.9030   -1.9140 hc        1 MOL     -0.028830
     30 H11         0.2030   -4.7570   -2.8410 hc        1 MOL      0.059117
     31 H12        -0.4200   -4.0890   -1.3490 hc        1 MOL      0.059117
     32 H13         0.0040   -7.5860    0.5000 hc        1 MOL      0.022947
     33 H14        -0.8570   -6.1010    0.5820 hc        1 MOL      0.022947
     34 H15        -1.3310   -7.4490   -0.5710 hc        1 MOL      0.022947
     35 H16        -2.0200   -6.4580   -2.4240 hc        1 MOL      0.080045
     36 H17        -2.6440   -4.9240   -1.8130 hc        1 MOL      0.080045
     37 H18        -2.0080   -4.9770   -3.4010 hc        1 MOL      0.080045
     38 N3          3.4900   -4.1680   -1.7940 n         1 MOL     -0.272299
     39 C13         4.3500   -3.8200   -3.0040 c3        1 MOL     -0.014377
     40 C14         5.6320   -3.0370   -2.5680 c         1 MOL      0.311487
     41 O6          6.4050   -2.6150   -3.3990 o         1 MOL     -0.492519
     42 C15         3.5980   -2.9260   -4.0280 c3        1 MOL     -0.156258
     43 C16         2.9070   -1.7140   -3.4600 c         1 MOL      0.727157
     44 O7          3.1210   -1.2990   -2.3040 o         1 MOL     -0.705590
     45 O8          2.0750   -1.1520   -4.2350 o         1 MOL     -0.705590
     46 H19         3.5470   -3.5920   -0.9750 hn        1 MOL      0.291734
     47 H20         4.6490   -4.7560   -3.4820 h1        1 MOL      0.097227
     48 H21         2.8820   -3.5970   -4.4990 hc        1 MOL      0.047902
     49 H22         4.2880   -2.6280   -4.8130 hc        1 MOL      0.047902
     50 N4          5.8210   -2.7770   -1.2390 n         1 MOL     -0.026209
     51 C17         7.0200   -2.0870   -0.7220 c3        1 MOL      0.026709
     52 C18         7.3920   -0.7650   -1.3040 c         1 MOL      0.326202
     53 O9          8.5910   -0.5350   -1.4500 o         1 MOL     -0.573183
     54 H23         5.1120   -2.9660   -0.5400 hn        1 MOL     -0.093082
     55 H24         7.9000   -2.7140   -0.8420 h1        1 MOL      0.031173
     56 H25         6.8330   -1.8650    0.3290 h1        1 MOL      0.031173
     57 N5          6.4780    0.0710   -1.7700 n         1 MOL      0.039831
     58 C19         6.7100    1.3150   -2.5150 c3        1 MOL     -0.252352
     59 C20         7.1080    2.4420   -1.5980 c         1 MOL      0.508586
     60 O10         7.8020    3.3470   -2.0130 o         1 MOL     -0.566171
     61 C21         5.4250    1.7500   -3.2740 c3        1 MOL     -0.175479
     62 C22         4.1610    1.9170   -2.4580 c         1 MOL      0.695405
     63 O11         4.1330    1.6170   -1.2260 o         1 MOL     -0.689422
     64 O12         3.1450    2.2920   -3.1200 o         1 MOL     -0.689422
     65 H26         5.5390   -0.2970   -1.7830 hn        1 MOL      0.146788
     66 H27         7.5440    1.1270   -3.1840 h1        1 MOL      0.139846
     67 H28         5.1300    1.0080   -4.0260 hc        1 MOL      0.088838
     68 H29         5.5750    2.6210   -3.9090 hc        1 MOL      0.088838
     69 N6          6.6930    2.4760   -0.3420 n         1 MOL     -0.202666
     70 C23         7.0930    3.5200    0.6170 c3        1 MOL     -0.248390
     71 C24         5.9040    4.4050    1.0360 c         1 MOL      0.556596
     72 O13         6.1420    5.4320    1.6690 o         1 MOL     -0.611773
     73 H30         6.0750    1.7560   -0.0050 hn        1 MOL      0.164063
     74 H31         7.8810    4.1490    0.2310 h1        1 MOL      0.119672
     75 H32         7.3290    2.9910    1.5450 h1        1 MOL      0.119672
     76 N7          4.6530    4.0660    0.7680 n         1 MOL     -0.249782
     77 C25         3.3920    4.6010    1.3480 c3        1 MOL     -0.083158
     78 C26         2.3740    3.5360    1.6130 c         1 MOL      0.631971
     79 O14         2.3620    2.4770    0.9550 o         1 MOL     -0.669645
     80 C27         2.7520    5.4900    0.2760 c3        1 MOL     -0.158157
     81 C28         3.4300    6.8160    0.0480 c3        1 MOL     -0.356336
     82 C29         2.4360    7.6200   -0.7660 c         1 MOL      0.639807
     83 N8          2.3780    7.5550   -2.0920 n         1 MOL     -0.809086
     84 O15         1.6010    8.3630   -0.2290 o         1 MOL     -0.581090
     85 H33         4.6300    3.3160    0.0970 hn        1 MOL      0.231175
     86 H34         3.6060    5.1720    2.2530 h1        1 MOL      0.092643
     87 H35         1.7040    5.7230    0.4520 hc        1 MOL      0.121231
     88 H36         2.8730    4.9350   -0.6530 hc        1 MOL      0.121231
     89 H37         4.4000    6.6830   -0.4390 hc        1 MOL      0.144044
     90 H38         3.6110    7.2570    1.0280 hc        1 MOL      0.144044
     91 H39         2.9300    6.8620   -2.5690 hn        1 MOL      0.377625
     92 H40         1.7580    8.2110   -2.5440 hn        1 MOL      0.377625
     93 N9          1.4930    3.8290    2.5520 n         1 MOL     -0.653116
     94 C30         0.3190    2.9440    2.7700 c3        1 MOL      0.010576
     95 C31        -0.8880    3.3600    1.9090 c         1 MOL      0.418925
     96 O16        -1.2940    4.5210    2.0450 o         1 MOL     -0.577295
     97 C32        -0.0030    2.7950    4.2420 c3        1 MOL      0.241921
     98 C33        -1.3810    2.0990    4.4580 c3        1 MOL     -0.233323
     99 C34         1.0210    1.9470    4.9300 c3        1 MOL     -0.233323
    100 H41         1.5290    4.7930    2.8420 hn        1 MOL      0.341204
    101 H42         0.5580    1.9390    2.4120 h1        1 MOL      0.396095
    102 H43        -0.0170    3.7740    4.7210 hc        1 MOL      0.003754
    103 H44        -1.4910    1.9190    5.5250 hc        1 MOL      0.032062
    104 H45        -2.1240    2.8390    4.1670 hc        1 MOL      0.032062
    105 H46        -1.4290    1.1730    3.8960 hc        1 MOL      0.032062
    106 H47         1.8830    1.9150    4.2630 hc        1 MOL      0.032062
    107 H48         1.1340    2.2630    5.9630 hc        1 MOL      0.032062
    108 H49         0.9620    0.8640    4.8900 hc        1 MOL      0.032062
    109 N10        -1.5280    2.4220    1.2650 n         1 MOL     -0.038336
    110 C35        -2.7300    2.7000    0.4900 c3        1 MOL      0.160304
    111 C36        -4.0120    2.1470    1.0620 c         1 MOL      0.275389
    112 O17        -3.9330    1.0700    1.6510 o         1 MOL     -0.363166
    113 C37        -2.5140    1.9290   -0.8780 c3        1 MOL     -0.120213
    114 C38        -3.6350    2.1590   -1.8740 c         1 MOL      0.618827
    115 N11        -3.8560    3.4200   -2.2240 n         1 MOL     -0.764770
    116 O18        -4.3730    1.2040   -2.1560 o         1 MOL     -0.511216
    117 H50        -1.2090    1.4610    1.2560 hn        1 MOL     -0.117700
    118 H51        -2.7970    3.7830    0.4250 h1        1 MOL     -0.004954
    119 H52        -2.4550    0.8540   -0.6970 hc        1 MOL      0.052578
    120 H53        -1.5590    2.2480   -1.2680 hc        1 MOL      0.052578
    121 H54        -3.1440    4.1140   -2.0900 hn        1 MOL      0.354529
    122 H55        -4.6560    3.6450   -2.7980 hn        1 MOL      0.354529
    123 N12        -5.1850    2.6670    0.6690 n         1 MOL     -0.348056
    124 C39        -6.4780    2.0990    1.1280 c3        1 MOL      0.204753
    125 C40        -6.7210    0.5950    1.0090 c         1 MOL      0.427977
    126 O19        -7.3330    0.0970    1.9690 o         1 MOL     -0.589084
    127 C41        -7.6260    2.8230    0.4950 c3        1 MOL     -0.152379
    128 C42        -7.8810    2.7630   -1.0230 ca        1 MOL     -0.015961
    129 C43        -8.5370    1.6520   -1.5800 ca        1 MOL     -0.028851
    130 C44        -7.5010    3.8110   -1.8240 ca        1 MOL     -0.028851
    131 C45        -8.6830    1.5570   -2.9410 ca        1 MOL     -0.459808
    132 C46        -7.7290    3.7650   -3.2230 ca        1 MOL     -0.459808
    133 C47        -8.3390    2.6170   -3.8360 ca        1 MOL      0.545993
    134 O20        -8.5770    2.5340   -5.1540 oh        1 MOL     -0.555400
    135 H56        -5.2130    3.4770    0.0470 hn        1 MOL      0.225476
    136 H57        -6.5880    2.2890    2.1980 h1        1 MOL      0.041310
    137 H58        -7.5200    3.8600    0.8090 hc        1 MOL      0.032978
    138 H59        -8.5360    2.4700    0.9840 hc        1 MOL      0.032978
    139 H60        -8.7570    0.8270   -0.9020 ha        1 MOL      0.092440
    140 H61        -6.9310    4.6560   -1.4850 ha        1 MOL      0.092440
    141 H62        -9.0470    0.5920   -3.2690 ha        1 MOL      0.177468
    142 H63        -7.2630    4.5200   -3.8420 ha        1 MOL      0.177468
    143 H64        -9.1500    1.7830   -5.3170 ho        1 MOL      0.419316
    144 N13        -6.1380   -0.1330    0.0050 n         1 MOL      0.086749
    145 C48        -6.4080   -1.5620   -0.0790 c3        1 MOL     -0.327901
    146 C49        -5.4000   -2.4200    0.7660 c         1 MOL      0.457659
    147 O21        -5.5350   -3.6300    0.9250 o         1 MOL     -0.531492
    148 C50        -6.1600   -2.0610   -1.5270 c3        1 MOL      0.270977
    149 C51        -7.4180   -1.8180   -2.3550 c3        1 MOL     -0.242800
    150 C52        -7.3390   -2.3340   -3.8170 c         1 MOL      0.666499
    151 O22        -6.6670   -1.7100   -4.6430 o         1 MOL     -0.725379
    152 O23        -7.8560   -3.4240   -4.0840 o         1 MOL     -0.725379
    153 H65        -5.6510    0.3160   -0.7470 hn        1 MOL      0.146002
    154 H66        -7.4430   -1.8010    0.1830 h1        1 MOL      0.136125
    155 H67        -5.8780   -3.1130   -1.5390 hc        1 MOL      0.000592
    156 H68        -5.3260   -1.5130   -1.9650 hc        1 MOL      0.000592
    157 H69        -7.4600   -0.7270   -2.3730 hc        1 MOL      0.020157
    158 H70        -8.2960   -2.2770   -1.8860 hc        1 MOL      0.020157
    159 N14        -4.4520   -1.7460    1.4220 n         1 MOL     -0.271122
    160 C53        -3.4890   -2.2750    2.3880 c3        1 MOL     -0.103676
    161 C54        -3.8720   -2.0230    3.8480 c         1 MOL      0.554388
    162 O24        -3.5520   -2.7720    4.6990 o         1 MOL     -0.557936
    163 C55        -2.1200   -1.7270    2.0340 c3        1 MOL      0.018874
    164 C56        -1.7160   -1.6780    0.5420 c3        1 MOL     -0.103838
    165 C57        -0.2840   -1.1880    0.4960 c         1 MOL      0.756978
    166 O25        -0.0420    0.0150    0.8290 o         1 MOL     -0.738745
    167 O26         0.6290   -1.8850   -0.0840 o         1 MOL     -0.738745
    168 H71        -4.2840   -0.7990    1.1220 hn        1 MOL      0.067600
    169 H72        -3.3170   -3.3380    2.1830 h1        1 MOL      0.098394
    170 H73        -1.3310   -2.3100    2.4970 hc        1 MOL      0.040985
    171 H74        -2.0230   -0.6820    2.3400 hc        1 MOL      0.040985
    172 H75        -2.4140   -1.2140   -0.1520 hc        1 MOL      0.062698
    173 H76        -1.6490   -2.6770    0.1000 hc        1 MOL      0.062698
    174 N15        -4.5820   -0.8860    4.0820 n         1 MOL     -0.228967
    175 C58        -4.9710   -0.3210    5.3630 c3        1 MOL     -0.047306
    176 H77        -6.0400   -0.1100    5.3570 h1        1 MOL      0.042739
    177 H78        -4.7470   -1.0330    6.1570 h1        1 MOL      0.042739
    178 H79        -4.4190    0.6030    5.5360 h1        1 MOL      0.042739
    179 H80        -4.6190   -0.2570    3.2960 hn        1 MOL      0.190777
    180 Ca1         2.4990   -0.1120   -0.1120 Ca        1 MOL      1.755144
    181 O27         4.9900    0.2430    1.2260 oh        1 MOL     -0.829209
    182 H81         5.9210    0.0520    1.2680 ho        1 MOL      0.404069
    183 H82         4.6980    0.1990    2.1350 ho        1 MOL      0.404069
    184 O28         2.4510   -0.3000    2.5520 oh        1 MOL     -0.829209
    185 H83         3.0700   -0.7230    3.1560 ho        1 MOL      0.404069
    186 H84         1.6160   -0.3180    3.0210 ho        1 MOL      0.404069
    187 O29         0.9600    1.0270   -2.1550 oh        1 MOL     -0.829209
    188 H85         1.6160    1.5860   -2.5820 ho        1 MOL      0.404069
    189 H86         0.1930    1.0790   -2.7160 ho        1 MOL      0.404069
@<TRIPOS>BOND
     1    1    2 1   
     2    1    4 1   
     3    1    5 1   
     4    1    6 1   
     5    2    3 2   
     6    2    7 1   
     7    7    8 1   
     8    7   15 1   
     9    8    9 1   
    10    8   11 1   
    11    8   16 1   
    12    9   10 2   
    13    9   19 1   
    14   11   12 1   
    15   11   17 1   
    16   11   18 1   
    17   12   13 1   
    18   12   14 1   
    19   19   20 1   
    20   19   27 1   
    21   20   21 1   
    22   20   23 1   
    23   20   28 1   
    24   21   22 2   
    25   21   38 1   
    26   23   24 1   
    27   23   25 1   
    28   23   29 1   
    29   24   26 1   
    30   24   30 1   
    31   24   31 1   
    32   25   32 1   
    33   25   33 1   
    34   25   34 1   
    35   26   35 1   
    36   26   36 1   
    37   26   37 1   
    38   38   39 1   
    39   38   46 1   
    40   39   40 1   
    41   39   42 1   
    42   39   47 1   
    43   40   41 2   
    44   40   50 1   
    45   42   43 1   
    46   42   48 1   
    47   42   49 1   
    48   43   44 1   
    49   43   45 1   
    50   50   51 1   
    51   50   54 1   
    52   51   52 1   
    53   51   55 1   
    54   51   56 1   
    55   52   53 2   
    56   52   57 1   
    57   57   58 1   
    58   57   65 1   
    59   58   59 1   
    60   58   61 1   
    61   58   66 1   
    62   59   60 2   
    63   59   69 1   
    64   61   62 1   
    65   61   67 1   
    66   61   68 1   
    67   62   63 1   
    68   62   64 1   
    69   69   70 1   
    70   69   73 1   
    71   70   71 1   
    72   70   74 1   
    73   70   75 1   
    74   71   72 2   
    75   71   76 1   
    76   76   77 1   
    77   76   85 1   
    78   77   78 1   
    79   77   80 1   
    80   77   86 1   
    81   78   79 2   
    82   78   93 1   
    83   80   81 1   
    84   80   87 1   
    85   80   88 1   
    86   81   82 1   
    87   81   89 1   
    88   81   90 1   
    89   82   83 1   
    90   82   84 2   
    91   83   91 1   
    92   83   92 1   
    93   93   94 1   
    94   93  100 1   
    95   94   95 1   
    96   94   97 1   
    97   94  101 1   
    98   95   96 2   
    99   95  109 1   
   100   97   98 1   
   101   97   99 1   
   102   97  102 1   
   103   98  103 1   
   104   98  104 1   
   105   98  105 1   
   106   99  106 1   
   107   99  107 1   
   108   99  108 1   
   109  109  110 1   
   110  109  117 1   
   111  110  111 1   
   112  110  113 1   
   113  110  118 1   
   114  111  112 2   
   115  111  123 1   
   116  113  114 1   
   117  113  119 1   
   118  113  120 1   
   119  114  115 1   
   120  114  116 2   
   121  115  121 1   
   122  115  122 1   
   123  123  124 1   
   124  123  135 1   
   125  124  125 1   
   126  124  127 1   
   127  124  136 1   
   128  125  126 2   
   129  125  144 1   
   130  127  128 1   
   131  127  137 1   
   132  127  138 1   
   133  128  129 ar  
   134  128  130 ar  
   135  129  131 ar  
   136  129  139 1   
   137  130  132 ar  
   138  130  140 1   
   139  131  133 ar  
   140  131  141 1   
   141  132  133 ar  
   142  132  142 1   
   143  133  134 1   
   144  134  143 1   
   145  144  145 1   
   146  144  153 1   
   147  145  146 1   
   148  145  148 1   
   149  145  154 1   
   150  146  147 2   
   151  146  159 1   
   152  148  149 1   
   153  148  155 1   
   154  148  156 1   
   155  149  150 1   
   156  149  157 1   
   157  149  158 1   
   158  150  151 1   
   159  150  152 1   
   160  159  160 1   
   161  159  168 1   
   162  160  161 1   
   163  160  163 1   
   164  160  169 1   
   165  161  162 2   
   166  161  174 1   
   167  163  164 1   
   168  163  170 1   
   169  163  171 1   
   170  164  165 1   
   171  164  172 1   
   172  164  173 1   
   173  165  166 1   
   174  165  167 1   
   175  174  175 1   
   176  174  179 1   
   177  175  176 1   
   178  175  177 1   
   179  175  178 1   
   180  181  182 1   
   181  181  183 1   
   182  184  185 1   
   183  184  186 1   
   184  187  188 1   
   185  187  189 1   
@<TRIPOS>SUBSTRUCTURE
     1 MOL         1 TEMP              0 ****  ****    0 ROOT
