@<TRIPOS>MOLECULE
MOL
  172   171     1     0     0
SMALL
resp


@<TRIPOS>ATOM
      1 C1          0.9040    3.6730    5.8180 c3        1 MOL     -0.372936
      2 C2          0.3890    4.0240    4.3150 c         1 MOL      0.662051
      3 O1          1.0830    4.7240    3.6060 o         1 MOL     -0.519462
      4 H1          0.3710    4.2940    6.5380 hc        1 MOL      0.091561
      5 H2          0.7110    2.6220    6.0330 hc        1 MOL      0.091561
      6 H3          1.9740    3.8680    5.8910 hc        1 MOL      0.091561
      7 N1         -0.8580    3.5430    3.9620 n         1 MOL     -0.674073
      8 C3         -1.4760    3.4850    2.6410 c3        1 MOL      0.465085
      9 C4         -1.5090    4.7880    1.7960 c         1 MOL      0.405441
     10 O2         -1.7720    5.8340    2.4230 o         1 MOL     -0.541501
     11 C5         -2.8600    2.8700    2.9120 c3        1 MOL     -0.301784
     12 C6         -3.6470    2.7750    1.5820 c         1 MOL      0.652799
     13 O3         -4.6960    3.4050    1.3550 o         1 MOL     -0.634530
     14 O4         -3.0910    1.9910    0.8020 o         1 MOL     -0.634530
     15 H4         -1.2950    3.2260    4.8080 hn        1 MOL      0.304263
     16 H5         -0.9660    2.7430    2.0370 h1        1 MOL     -0.042705
     17 H6         -3.3520    3.5920    3.5510 hc        1 MOL      0.040892
     18 H7         -2.8230    1.8610    3.3360 hc        1 MOL      0.040892
     19 N2         -1.5580    4.6400    0.4460 n         1 MOL     -0.333241
     20 C7         -2.0140    5.6370   -0.4900 c3        1 MOL      0.471968
     21 C8         -2.8910    5.1770   -1.6590 c         1 MOL      0.336747
     22 O5         -2.7670    5.7950   -2.7390 o         1 MOL     -0.543055
     23 C9         -0.6670    6.3510   -0.9780 c3        1 MOL     -0.451514
     24 H8         -1.3860    3.7150    0.1100 hn        1 MOL      0.184448
     25 H9         -2.6490    6.3910   -0.0120 h1        1 MOL     -0.024907
     26 H10        -0.9110    7.2810   -1.4860 hc        1 MOL      0.103673
     27 H11        -0.0150    6.4350   -0.0950 hc        1 MOL      0.103673
     28 H12        -0.1140    5.6900   -1.6480 hc        1 MOL      0.103673
     29 N3         -3.5870    3.9860   -1.6170 n         1 MOL     -0.081657
     30 C10        -4.4850    3.5110   -2.7340 c3        1 MOL     -0.050923
     31 C11        -5.8530    2.9420   -2.3250 c         1 MOL      0.438491
     32 O6         -6.7310    2.8470   -3.1740 o         1 MOL     -0.561507
     33 C12        -3.7820    2.5250   -3.6160 c3        1 MOL     -0.083689
     34 C13        -3.3420    1.2210   -2.9770 c         1 MOL      0.752168
     35 O7         -4.0050    0.7510   -2.0180 o         1 MOL     -0.720810
     36 O8         -2.3280    0.6610   -3.3850 o         1 MOL     -0.720810
     37 H13        -3.6660    3.5450   -0.7140 hn        1 MOL     -0.048180
     38 H14        -4.6970    4.4400   -3.2470 h1        1 MOL      0.076587
     39 H15        -2.8390    3.0190   -3.8620 hc        1 MOL      0.033806
     40 H16        -4.2960    2.3250   -4.5620 hc        1 MOL      0.033806
     41 N4         -6.1090    2.4830   -1.1020 n         1 MOL     -0.220212
     42 C14        -7.4100    1.8980   -0.7300 c3        1 MOL     -0.132349
     43 C15        -7.5580    0.3660   -1.1410 c         1 MOL      0.436051
     44 O9         -8.6640   -0.1140   -1.0670 o         1 MOL     -0.588430
     45 H17        -5.3840    2.5890   -0.3990 hn        1 MOL      0.212889
     46 H18        -8.1870    2.5470   -1.1300 h1        1 MOL      0.099358
     47 H19        -7.5510    2.0500    0.3350 h1        1 MOL      0.099358
     48 N5         -6.5050   -0.3860   -1.5140 n         1 MOL     -0.013019
     49 C16        -6.4840   -1.8430   -1.8590 c3        1 MOL     -0.153768
     50 C17        -6.4770   -2.8200   -0.6370 c         1 MOL      0.427010
     51 O10        -6.4410   -4.0540   -0.8100 o         1 MOL     -0.495945
     52 C18        -5.4930   -2.1970   -2.9790 c3        1 MOL     -0.097059
     53 C19        -4.0660   -2.1570   -2.4060 c         1 MOL      0.516922
     54 N6         -3.0670   -2.3940   -3.1760 n         1 MOL     -0.503189
     55 O11        -3.8490   -2.1150   -1.2440 o         1 MOL     -0.499993
     56 H20        -5.5740   -0.0060   -1.5110 hn        1 MOL      0.035126
     57 H21        -7.4270   -2.0160   -2.3640 h1        1 MOL      0.120078
     58 H22        -5.5940   -1.4460   -3.7680 hc        1 MOL      0.063983
     59 H23        -5.7310   -3.1480   -3.4420 hc        1 MOL      0.063983
     60 H24        -3.1680   -2.6680   -4.1480 hn        1 MOL      0.277304
     61 H25        -2.1130   -2.2000   -2.9010 hn        1 MOL      0.277304
     62 N7         -6.5350   -2.3420    0.5870 n         1 MOL     -0.264149
     63 C20        -6.5100   -3.2960    1.7520 c3        1 MOL     -0.129257
     64 C21        -5.2880   -4.2080    1.8950 c         1 MOL      0.491588
     65 O12        -5.3720   -5.2090    2.5980 o         1 MOL     -0.550399
     66 H26        -6.5150   -1.3490    0.8040 hn        1 MOL      0.228075
     67 H27        -7.4400   -3.8530    1.7160 h1        1 MOL      0.083377
     68 H28        -6.5300   -2.6850    2.6580 h1        1 MOL      0.083377
     69 N8         -4.1010   -3.8120    1.2800 n         1 MOL     -0.007636
     70 C22        -2.8480   -4.3890    1.5340 c3        1 MOL     -0.461529
     71 C23        -1.7110   -3.4270    1.4630 c         1 MOL      0.654494
     72 O13        -1.6350   -2.4380    0.6690 o         1 MOL     -0.351241
     73 C24        -2.5200   -5.4230    0.4250 c3        1 MOL      0.503539
     74 C25        -3.2280   -6.8090    0.4750 c3        1 MOL     -0.334644
     75 O14        -2.7210   -4.9000   -0.9320 oh        1 MOL     -0.581858
     76 H29        -4.1790   -2.9910    0.6990 hn        1 MOL      0.162929
     77 H30        -2.8290   -4.7360    2.5660 h1        1 MOL      0.135793
     78 H31        -1.4510   -5.6520    0.4410 h1        1 MOL     -0.001307
     79 H32        -2.3130   -4.0260   -0.9680 ho        1 MOL      0.264756
     80 H33        -4.3020   -6.7930    0.6300 hc        1 MOL      0.080217
     81 H34        -2.8590   -7.4210   -0.3380 hc        1 MOL      0.080217
     82 H35        -2.6990   -7.3450    1.2720 hc        1 MOL      0.080217
     83 N9         -0.6000   -3.6440    2.2530 n         1 MOL     -0.505238
     84 C26         0.6290   -2.7910    2.1460 c3        1 MOL     -0.038397
     85 C27         1.3780   -3.2520    0.9440 c         1 MOL      0.447794
     86 O15         1.6640   -4.4370    0.6800 o         1 MOL     -0.572709
     87 C28         1.4220   -2.7870    3.4900 c3        1 MOL      0.087638
     88 C29         0.5320   -2.0810    4.5970 c3        1 MOL      0.044681
     89 C30         2.7860   -2.1970    3.3920 c3        1 MOL     -0.025871
     90 C31         1.1180   -2.2950    5.9990 c3        1 MOL     -0.213040
     91 H36        -0.5470   -4.5130    2.7600 hn        1 MOL      0.279967
     92 H37         0.4160   -1.7820    1.8120 h1        1 MOL      0.114713
     93 H38         1.6070   -3.8020    3.8330 hc        1 MOL      0.007702
     94 H39        -0.4660   -2.4780    4.4800 hc        1 MOL     -0.002167
     95 H40         0.4310   -1.0100    4.3750 hc        1 MOL     -0.002167
     96 H41         3.4190   -2.4680    4.2390 hc        1 MOL      0.010507
     97 H42         3.2660   -2.6380    2.5210 hc        1 MOL      0.010507
     98 H43         2.8130   -1.1060    3.3590 hc        1 MOL      0.010507
     99 H44         2.0590   -1.7600    6.1130 hc        1 MOL      0.043301
    100 H45         0.3850   -2.0000    6.7570 hc        1 MOL      0.043301
    101 H46         1.3930   -3.3420    6.0500 hc        1 MOL      0.043301
    102 N10         1.6400   -2.2670    0.0850 n         1 MOL      0.022471
    103 C32         2.5230   -2.2330   -1.0910 c3        1 MOL      0.195637
    104 C33         4.0050   -1.8070   -0.6990 c         1 MOL      0.372139
    105 O16         4.3370   -1.4180    0.4510 o         1 MOL     -0.352923
    106 C34         1.9110   -1.3940   -2.2110 c3        1 MOL     -0.472557
    107 C35         0.4510   -1.7990   -2.6460 c         1 MOL      0.828103
    108 O17        -0.5070   -1.4430   -1.9220 o         1 MOL     -0.675497
    109 O18         0.3330   -2.3320   -3.7630 o         1 MOL     -0.675497
    110 H47         1.2050   -1.3550    0.2240 hn        1 MOL     -0.398560
    111 H48         2.5640   -3.2950   -1.3420 h1        1 MOL      0.034669
    112 H49         2.5660   -1.4880   -3.0780 hc        1 MOL      0.126876
    113 H50         1.8540   -0.3600   -1.8730 hc        1 MOL      0.126876
    114 N11         4.9200   -1.9870   -1.6350 n         1 MOL     -0.613958
    115 C36         6.3830   -1.6560   -1.3950 c3        1 MOL      0.331196
    116 C37         6.6310   -0.1870   -1.0540 c         1 MOL      0.440065
    117 O19         7.2560    0.0640    0.0240 o         1 MOL     -0.529841
    118 C38         7.1620   -2.2540   -2.5510 c3        1 MOL     -0.188989
    119 C39         8.6120   -1.9650   -2.4420 ca        1 MOL      0.127753
    120 C40         9.3450   -2.3850   -1.3250 ca        1 MOL     -0.184768
    121 C41         9.1990   -1.1390   -3.4510 ca        1 MOL     -0.184768
    122 C42        10.6550   -1.9040   -1.1340 ca        1 MOL     -0.099282
    123 C43        10.5130   -0.7350   -3.3030 ca        1 MOL     -0.099282
    124 C44        11.2190   -1.1120   -2.1390 ca        1 MOL     -0.141899
    125 H51         4.7160   -2.4720   -2.4960 hn        1 MOL      0.347621
    126 H52         6.8020   -2.2010   -0.5480 h1        1 MOL      0.058265
    127 H53         6.6940   -1.9350   -3.4860 hc        1 MOL      0.050611
    128 H54         7.0890   -3.3370   -2.4910 hc        1 MOL      0.050611
    129 H55         8.8170   -3.0050   -0.6160 ha        1 MOL      0.122005
    130 H56         8.6780   -0.6630   -4.2670 ha        1 MOL      0.122005
    131 H57        11.0770   -2.0580   -0.1490 ha        1 MOL      0.118111
    132 H58        11.0060   -0.0360   -3.9640 ha        1 MOL      0.118111
    133 H59        12.1610   -0.5950   -1.9750 ha        1 MOL      0.102448
    134 N12         6.1020    0.8780   -1.7150 n         1 MOL     -0.230280
    135 C45         6.2770    2.2730   -1.3560 c3        1 MOL      0.036671
    136 C46         5.5140    2.6110   -0.0360 c         1 MOL      0.334129
    137 O20         5.7900    3.5870    0.6140 o         1 MOL     -0.488072
    138 C47         5.7000    3.1270   -2.5180 c3        1 MOL     -0.245687
    139 C48         4.7030    2.1610   -3.0690 c3        1 MOL      0.192262
    140 C49         5.3230    0.8190   -2.9960 c3        1 MOL     -0.019853
    141 H60         7.3210    2.4350   -1.0980 h1        1 MOL      0.080068
    142 H61         5.3170    4.0200   -2.0350 hc        1 MOL      0.078499
    143 H62         6.4200    3.3900   -3.2840 hc        1 MOL      0.078499
    144 H63         3.8330    2.2040   -2.4160 hc        1 MOL     -0.006103
    145 H64         4.2710    2.4280   -4.0340 hc        1 MOL     -0.006103
    146 H65         4.4780    0.1410   -3.0060 h1        1 MOL      0.012158
    147 H66         5.8990    0.7380   -3.9230 h1        1 MOL      0.012158
    148 N13         4.6870    1.6530    0.4200 n         1 MOL     -0.060874
    149 C50         4.0370    1.8240    1.6940 c3        1 MOL     -0.232904
    150 C51         4.8580    1.1730    2.8280 c         1 MOL      0.462835
    151 O21         5.0120    1.7900    3.8890 o         1 MOL     -0.548000
    152 C52         2.6600    1.1470    1.5710 c3        1 MOL      0.145071
    153 C53         1.8480    1.8450    0.4630 c3        1 MOL      0.178493
    154 C54         0.4370    1.3040    0.2190 c         1 MOL      0.690356
    155 O22         0.1030    0.2420    0.7590 o         1 MOL     -0.729396
    156 O23        -0.3550    1.9530   -0.4660 o         1 MOL     -0.729396
    157 H67         4.3760    0.8930   -0.1710 hn        1 MOL      0.264703
    158 H68         3.8830    2.8820    1.8660 h1        1 MOL      0.138035
    159 H69         2.1300    1.3220    2.5080 hc        1 MOL      0.005644
    160 H70         2.6380    0.0750    1.4120 hc        1 MOL      0.005644
    161 H71         2.4220    1.7570   -0.4710 hc        1 MOL     -0.074983
    162 H72         1.8010    2.8750    0.8270 hc        1 MOL     -0.074983
    163 N14         5.5880    0.0460    2.5350 n         1 MOL     -0.009665
    164 C55         6.5340   -0.5690    3.4340 c3        1 MOL     -0.195258
    165 H73         6.2200   -0.3980    4.4630 h1        1 MOL      0.067184
    166 H74         6.5750   -1.6410    3.2400 h1        1 MOL      0.067184
    167 H75         7.5200   -0.1320    3.2780 h1        1 MOL      0.067184
    168 H76         5.3450   -0.4670    1.7000 hn        1 MOL      0.002249
    169 Ca1        -2.1230   -0.0980   -0.4030 Ca        1 MOL      1.738983
    170 O24        -3.6250   -0.8080    2.0150 oh        1 MOL     -1.057568
    171 H77        -3.1890   -0.5100    2.8130 ho        1 MOL      0.476872
    172 H78        -4.5410   -0.5520    2.1420 ho        1 MOL      0.476872
@<TRIPOS>BOND
     1    1    2 1   
     2    1    4 1   
     3    1    5 1   
     4    1    6 1   
     5    2    3 2   
     6    2    7 1   
     7    7    8 1   
     8    7   15 1   
     9    8    9 1   
    10    8   11 1   
    11    8   16 1   
    12    9   10 2   
    13    9   19 1   
    14   11   12 1   
    15   11   17 1   
    16   11   18 1   
    17   12   13 1   
    18   12   14 1   
    19   19   20 1   
    20   19   24 1   
    21   20   21 1   
    22   20   23 1   
    23   20   25 1   
    24   21   22 2   
    25   21   29 1   
    26   23   26 1   
    27   23   27 1   
    28   23   28 1   
    29   29   30 1   
    30   29   37 1   
    31   30   31 1   
    32   30   33 1   
    33   30   38 1   
    34   31   32 2   
    35   31   41 1   
    36   33   34 1   
    37   33   39 1   
    38   33   40 1   
    39   34   35 1   
    40   34   36 1   
    41   41   42 1   
    42   41   45 1   
    43   42   43 1   
    44   42   46 1   
    45   42   47 1   
    46   43   44 2   
    47   43   48 1   
    48   48   49 1   
    49   48   56 1   
    50   49   50 1   
    51   49   52 1   
    52   49   57 1   
    53   50   51 2   
    54   50   62 1   
    55   52   53 1   
    56   52   58 1   
    57   52   59 1   
    58   53   54 1   
    59   53   55 2   
    60   54   60 1   
    61   54   61 1   
    62   62   63 1   
    63   62   66 1   
    64   63   64 1   
    65   63   67 1   
    66   63   68 1   
    67   64   65 2   
    68   64   69 1   
    69   69   70 1   
    70   69   76 1   
    71   70   71 1   
    72   70   73 1   
    73   70   77 1   
    74   71   72 2   
    75   71   83 1   
    76   73   74 1   
    77   73   75 1   
    78   73   78 1   
    79   74   80 1   
    80   74   81 1   
    81   74   82 1   
    82   75   79 1   
    83   83   84 1   
    84   83   91 1   
    85   84   85 1   
    86   84   87 1   
    87   84   92 1   
    88   85   86 2   
    89   85  102 1   
    90   87   88 1   
    91   87   89 1   
    92   87   93 1   
    93   88   90 1   
    94   88   94 1   
    95   88   95 1   
    96   89   96 1   
    97   89   97 1   
    98   89   98 1   
    99   90   99 1   
   100   90  100 1   
   101   90  101 1   
   102  102  103 1   
   103  102  110 1   
   104  103  104 1   
   105  103  106 1   
   106  103  111 1   
   107  104  105 2   
   108  104  114 1   
   109  106  107 1   
   110  106  112 1   
   111  106  113 1   
   112  107  108 1   
   113  107  109 1   
   114  114  115 1   
   115  114  125 1   
   116  115  116 1   
   117  115  118 1   
   118  115  126 1   
   119  116  117 2   
   120  116  134 1   
   121  118  119 1   
   122  118  127 1   
   123  118  128 1   
   124  119  120 ar  
   125  119  121 ar  
   126  120  122 ar  
   127  120  129 1   
   128  121  123 ar  
   129  121  130 1   
   130  122  124 ar  
   131  122  131 1   
   132  123  124 ar  
   133  123  132 1   
   134  124  133 1   
   135  134  135 1   
   136  134  140 1   
   137  135  136 1   
   138  135  138 1   
   139  135  141 1   
   140  136  137 2   
   141  136  148 1   
   142  138  139 1   
   143  138  142 1   
   144  138  143 1   
   145  139  140 1   
   146  139  144 1   
   147  139  145 1   
   148  140  146 1   
   149  140  147 1   
   150  148  149 1   
   151  148  157 1   
   152  149  150 1   
   153  149  152 1   
   154  149  158 1   
   155  150  151 2   
   156  150  163 1   
   157  152  153 1   
   158  152  159 1   
   159  152  160 1   
   160  153  154 1   
   161  153  161 1   
   162  153  162 1   
   163  154  155 1   
   164  154  156 1   
   165  163  164 1   
   166  163  168 1   
   167  164  165 1   
   168  164  166 1   
   169  164  167 1   
   170  170  171 1   
   171  170  172 1   
@<TRIPOS>SUBSTRUCTURE
     1 MOL         1 TEMP              0 ****  ****    0 ROOT
