@<TRIPOS>MOLECULE
MOL
  175   173     1     0     0
SMALL
resp


@<TRIPOS>ATOM
      1 C1         -0.5600   -3.7500    5.6870 c3        1 MOL     -0.408824
      2 C2         -0.0260   -3.6510    4.2410 c         1 MOL      0.724724
      3 O1         -0.7940   -3.7100    3.3170 o         1 MOL     -0.543158
      4 H1         -0.8830   -2.7660    6.0240 hc        1 MOL      0.093796
      5 H2         -1.4040   -4.4400    5.7170 hc        1 MOL      0.093796
      6 H3          0.2310   -4.1150    6.3430 hc        1 MOL      0.093796
      7 N1          1.2630   -3.5470    4.1050 n         1 MOL     -0.599037
      8 C3          2.0430   -3.2790    2.8950 c3        1 MOL      0.237099
      9 C4          2.0850   -4.4780    1.8990 c         1 MOL      0.592722
     10 O2          2.1400   -5.6450    2.3800 o         1 MOL     -0.588557
     11 C5          3.3870   -2.6400    3.1280 c3        1 MOL     -0.299244
     12 C6          4.1510   -2.2130    1.8880 c         1 MOL      0.732990
     13 O3          5.3860   -2.3970    1.9110 o         1 MOL     -0.661713
     14 O4          3.5570   -1.6520    0.9530 o         1 MOL     -0.661713
     15 H4          1.7900   -3.4200    4.9520 hn        1 MOL      0.298515
     16 H5          1.4480   -2.5100    2.3950 h1        1 MOL      0.003348
     17 H6          4.0170   -3.3240    3.6920 hc        1 MOL      0.045934
     18 H7          3.2420   -1.7130    3.6850 hc        1 MOL      0.045934
     19 N2          1.9850   -4.2630    0.5770 n         1 MOL     -0.607867
     20 C7          2.0980   -5.3180   -0.4320 c3        1 MOL      0.389511
     21 C8          3.1540   -5.0500   -1.5150 c         1 MOL      0.402540
     22 O5          3.2770   -5.8380   -2.4680 o         1 MOL     -0.550264
     23 C9          0.6910   -5.5230   -0.8700 c3        1 MOL     -0.265123
     24 H8          1.8040   -3.3200    0.2520 hn        1 MOL      0.346506
     25 H9          2.4360   -6.2240    0.0810 h1        1 MOL     -0.004587
     26 H10        -0.0550   -5.6130   -0.0890 hc        1 MOL      0.058741
     27 H11         0.3610   -4.8120   -1.6240 hc        1 MOL      0.058741
     28 H12         0.6840   -6.4690   -1.4110 hc        1 MOL      0.058741
     29 N3          3.9010   -3.9170   -1.4020 n         1 MOL     -0.367339
     30 C10         4.8490   -3.6210   -2.5420 c3        1 MOL      0.040493
     31 C11         6.2190   -2.9560   -2.1520 c         1 MOL      0.398782
     32 O6          7.1190   -2.7750   -2.9360 o         1 MOL     -0.520234
     33 C12         4.0340   -2.7100   -3.4820 c3        1 MOL      0.035080
     34 C13         3.3430   -1.6290   -2.7310 c         1 MOL      0.633413
     35 O7          4.0190   -0.9380   -1.9390 o         1 MOL     -0.664999
     36 O8          2.1610   -1.4180   -2.8940 o         1 MOL     -0.664999
     37 H13         3.6800   -3.3190   -0.6150 hn        1 MOL      0.201835
     38 H14         5.1460   -4.4180   -3.2200 h1        1 MOL      0.079693
     39 H15         3.3300   -3.4140   -3.9290 hc        1 MOL     -0.005537
     40 H16         4.6190   -2.3490   -4.3360 hc        1 MOL     -0.005537
     41 N4          6.2780   -2.5350   -0.8370 n         1 MOL     -0.208049
     42 C14         7.4460   -1.7380   -0.4500 c3        1 MOL     -0.201176
     43 C15         7.4710   -0.2360   -0.8550 c         1 MOL      0.569600
     44 O9          8.5380    0.3270   -0.7690 o         1 MOL     -0.623573
     45 H17         5.5650   -2.7700   -0.1630 hn        1 MOL      0.162790
     46 H18         8.3780   -2.1640   -0.8220 h1        1 MOL      0.101657
     47 H19         7.4860   -1.8030    0.6320 h1        1 MOL      0.101657
     48 N5          6.3560    0.3660   -1.1880 n         1 MOL     -0.185583
     49 C16         6.3360    1.7070   -1.7890 c3        1 MOL      0.107899
     50 C17         6.3040    2.8710   -0.7110 c         1 MOL      0.380973
     51 O10         6.5220    3.9880   -1.1070 o         1 MOL     -0.510524
     52 C18         5.2610    1.8730   -2.9350 c3        1 MOL     -0.191855
     53 C19         3.8310    2.1880   -2.5630 c         1 MOL      0.765265
     54 N6          2.9210    1.9940   -3.4740 n         1 MOL     -0.724178
     55 O11         3.5150    2.3250   -1.3670 o         1 MOL     -0.620393
     56 H20         5.5650   -0.2330   -1.3390 hn        1 MOL      0.076355
     57 H21         7.3160    1.8660   -2.2570 h1        1 MOL      0.065249
     58 H22         5.1410    0.9170   -3.4390 hc        1 MOL      0.043076
     59 H23         5.4970    2.6180   -3.6910 hc        1 MOL      0.043076
     60 H24         3.2050    1.8200   -4.4350 hn        1 MOL      0.343342
     61 H25         1.9360    1.9430   -3.2540 hn        1 MOL      0.343342
     62 N7          6.0770    2.5780    0.5580 n         1 MOL     -0.158667
     63 C20         6.1670    3.6520    1.5570 c3        1 MOL     -0.276059
     64 C21         4.8900    4.5370    1.7070 c         1 MOL      0.516830
     65 O12         4.8580    5.5320    2.3880 o         1 MOL     -0.565678
     66 H26         5.8290    1.6370    0.8500 hn        1 MOL      0.164568
     67 H27         6.9710    4.2790    1.1790 h1        1 MOL      0.126987
     68 H28         6.4510    3.2360    2.5260 h1        1 MOL      0.126987
     69 N8          3.8050    4.0750    1.0560 n         1 MOL      0.035010
     70 C22         2.4910    4.7480    1.0770 c3        1 MOL     -0.521214
     71 C23         1.4020    3.6520    1.2760 c         1 MOL      0.626513
     72 O13         1.5510    2.5130    0.8060 o         1 MOL     -0.603229
     73 C24         2.1360    5.6680   -0.1500 c3        1 MOL      0.749340
     74 C25         2.7510    7.0770   -0.2090 c3        1 MOL     -0.522267
     75 O14         2.5740    5.0020   -1.3240 oh        1 MOL     -0.690564
     76 H29         3.8610    3.1950    0.5790 hn        1 MOL      0.017668
     77 H30         2.5170    5.5060    1.8720 h1        1 MOL      0.133121
     78 H31         1.0570    5.7790   -0.1900 h1        1 MOL     -0.088151
     79 H32         2.8200    4.1080   -1.0800 ho        1 MOL      0.376219
     80 H33         3.8310    6.9470   -0.0820 hc        1 MOL      0.122227
     81 H34         2.5930    7.4850   -1.1940 hc        1 MOL      0.122227
     82 H35         2.2640    7.6740    0.5620 hc        1 MOL      0.122227
     83 N9          0.2710    3.9750    1.8840 n         1 MOL     -0.368298
     84 C26        -0.8970    3.1050    1.8510 c3        1 MOL     -0.030225
     85 C27        -1.5710    3.2390    0.4190 c         1 MOL      0.565030
     86 O15        -2.0620    4.3260    0.0730 o         1 MOL     -0.586357
     87 C28        -1.9280    3.2550    3.0120 c3        1 MOL      0.085632
     88 C29        -1.4480    2.4820    4.2180 c3        1 MOL      0.176921
     89 C30        -3.3650    2.7350    2.6810 c3        1 MOL     -0.310334
     90 C31        -2.2250    2.7480    5.6280 c3        1 MOL     -0.134365
     91 H36         0.1730    4.8950    2.2950 hn        1 MOL      0.261284
     92 H37        -0.5650    2.0630    1.8840 h1        1 MOL      0.035558
     93 H38        -1.9120    4.3130    3.2940 hc        1 MOL      0.004605
     94 H39        -0.4330    2.8560    4.3290 hc        1 MOL     -0.058730
     95 H40        -1.4250    1.4180    3.9980 hc        1 MOL     -0.058730
     96 H41        -3.9610    2.9800    3.5560 hc        1 MOL      0.075290
     97 H42        -3.8550    3.2300    1.8430 hc        1 MOL      0.075290
     98 H43        -3.3250    1.6590    2.5240 hc        1 MOL      0.075290
     99 H44        -1.6560    2.1520    6.3330 hc        1 MOL      0.023636
    100 H45        -2.2030    3.7830    5.9650 hc        1 MOL      0.023636
    101 H46        -3.2730    2.4750    5.5230 hc        1 MOL      0.023636
    102 N10        -1.7010    2.0930   -0.2760 n         1 MOL     -0.282989
    103 C32        -2.5190    1.9250   -1.4860 c3        1 MOL      0.064074
    104 C33        -3.9660    1.3270   -1.2420 c         1 MOL      0.490519
    105 O16        -4.0860    0.5240   -0.3380 o         1 MOL     -0.354188
    106 C34        -1.8110    1.0570   -2.4870 c3        1 MOL     -0.238191
    107 C35        -0.3590    1.4350   -2.8730 c         1 MOL      0.709407
    108 O17         0.5640    1.1900   -2.0930 o         1 MOL     -0.666470
    109 O18        -0.1510    1.7680   -4.0620 o         1 MOL     -0.666470
    110 H47        -1.3810    1.2620    0.1900 hn        1 MOL      0.135724
    111 H48        -2.6650    2.9330   -1.8720 h1        1 MOL      0.057492
    112 H49        -2.3550    1.0590   -3.4370 hc        1 MOL      0.060098
    113 H50        -1.7870    0.0590   -2.0520 hc        1 MOL      0.060098
    114 N11        -5.0120    1.5720   -2.0790 n         1 MOL     -0.789660
    115 C36        -6.4210    1.2640   -1.6320 c3        1 MOL      0.456015
    116 C37        -6.6240   -0.2470   -1.2300 c         1 MOL      0.286860
    117 O19        -7.3750   -0.4700   -0.2910 o         1 MOL     -0.470402
    118 C38        -7.5150    1.6240   -2.7030 c3        1 MOL     -0.296276
    119 C39        -8.9350    1.5910   -2.1940 ca        1 MOL      0.107340
    120 C40        -9.2800    2.2960   -1.0270 ca        1 MOL     -0.171561
    121 C41        -9.8220    0.6540   -2.6760 ca        1 MOL     -0.171561
    122 C42       -10.5550    2.1230   -0.4400 ca        1 MOL     -0.064335
    123 C43       -11.1450    0.5640   -2.1860 ca        1 MOL     -0.064335
    124 C44       -11.5120    1.3580   -1.1400 ca        1 MOL     -0.170584
    125 H51        -4.8540    2.0830   -2.9350 hn        1 MOL      0.376679
    126 H52        -6.6070    1.7350   -0.6730 h1        1 MOL      0.055979
    127 H53        -7.4380    0.9320   -3.5380 hc        1 MOL      0.085168
    128 H54        -7.3120    2.6720   -2.9270 hc        1 MOL      0.085168
    129 H55        -8.5560    2.8560   -0.4570 ha        1 MOL      0.108350
    130 H56        -9.6620    0.0980   -3.5870 ha        1 MOL      0.108350
    131 H57       -10.7880    2.6740    0.4660 ha        1 MOL      0.101129
    132 H58       -11.9360   -0.1160   -2.4770 ha        1 MOL      0.101129
    133 H59       -12.5130    1.2810   -0.7550 ha        1 MOL      0.109160
    134 N12        -5.9530   -1.2640   -1.8680 n         1 MOL     -0.018634
    135 C45        -5.9600   -2.6750   -1.5250 c3        1 MOL      0.005853
    136 C46        -5.4280   -2.9030   -0.0870 c         1 MOL      0.168608
    137 O20        -5.9320   -3.7840    0.5710 o         1 MOL     -0.477652
    138 C47        -5.2960   -3.5330   -2.6120 c3        1 MOL     -0.021980
    139 C48        -5.2370   -2.5760   -3.7470 c3        1 MOL     -0.079528
    140 C49        -5.1760   -1.2160   -3.0680 c3        1 MOL     -0.109399
    141 H60        -7.0070   -2.9670   -1.5450 h1        1 MOL      0.078248
    142 H61        -4.2530   -3.7170   -2.3440 hc        1 MOL      0.045281
    143 H62        -5.8750   -4.3740   -2.9840 hc        1 MOL      0.045281
    144 H63        -4.4030   -2.7320   -4.4180 hc        1 MOL      0.041198
    145 H64        -6.2440   -2.5840   -4.1780 hc        1 MOL      0.041198
    146 H65        -4.1400   -1.0810   -2.7690 h1        1 MOL      0.067295
    147 H66        -5.5060   -0.4240   -3.7380 h1        1 MOL      0.067295
    148 N13        -4.5370   -2.0010    0.4440 n         1 MOL      0.128849
    149 C50        -3.9540   -2.0630    1.7790 c3        1 MOL     -0.294574
    150 C51        -4.9470   -1.4030    2.7670 c         1 MOL      0.474141
    151 O21        -5.0700   -1.8080    3.9200 o         1 MOL     -0.567459
    152 C52        -2.5860   -1.3800    1.7640 c3        1 MOL      0.051895
    153 C53        -1.7100   -2.0120    0.6630 c3        1 MOL     -0.267252
    154 C54        -0.3530   -1.3650    0.3980 c         1 MOL      0.671246
    155 O22        -0.2310   -0.1710    0.8050 o         1 MOL     -0.662892
    156 O23         0.6110   -1.9120   -0.1590 o         1 MOL     -0.662892
    157 H67        -4.1650   -1.3190   -0.2140 hn        1 MOL      0.109393
    158 H68        -3.8390   -3.1190    2.0060 h1        1 MOL      0.150794
    159 H69        -2.0900   -1.6450    2.6970 hc        1 MOL      0.051210
    160 H70        -2.6240   -0.2940    1.7620 hc        1 MOL      0.051210
    161 H71        -2.1870   -1.9650   -0.3230 hc        1 MOL      0.101258
    162 H72        -1.6090   -3.0660    0.9100 hc        1 MOL      0.101258
    163 N14        -5.5830   -0.3260    2.4100 n         1 MOL     -0.015740
    164 C55        -6.4500    0.4400    3.3850 c3        1 MOL     -0.266519
    165 H73        -5.8170    1.0270    4.0500 h1        1 MOL      0.098307
    166 H74        -7.1150    1.1070    2.8350 h1        1 MOL      0.098307
    167 H75        -7.0430   -0.2610    3.9740 h1        1 MOL      0.098307
    168 H76        -5.5940   -0.0500    1.4450 hn        1 MOL      0.046108
    169 Ca1         2.1940    0.2180   -0.3240 Ca        1 MOL      1.714344
    170 O24         3.7770    1.1470    1.8220 oh        1 MOL     -0.791707
    171 H77         4.6330    0.9800    2.2170 ho        1 MOL      0.397380
    172 H78         3.1470    0.9910    2.5230 ho        1 MOL      0.397380
    173 O25         1.6460    0.1210    2.8300 oh        1 MOL     -0.791707
    174 H79         1.4920    0.0960    3.7750 ho        1 MOL      0.397380
    175 H80         0.7700    0.1410    2.4440 ho        1 MOL      0.397380
@<TRIPOS>BOND
     1    1    2 1   
     2    1    4 1   
     3    1    5 1   
     4    1    6 1   
     5    2    3 2   
     6    2    7 1   
     7    7    8 1   
     8    7   15 1   
     9    8    9 1   
    10    8   11 1   
    11    8   16 1   
    12    9   10 2   
    13    9   19 1   
    14   11   12 1   
    15   11   17 1   
    16   11   18 1   
    17   12   13 1   
    18   12   14 1   
    19   19   20 1   
    20   19   24 1   
    21   20   21 1   
    22   20   23 1   
    23   20   25 1   
    24   21   22 2   
    25   21   29 1   
    26   23   26 1   
    27   23   27 1   
    28   23   28 1   
    29   29   30 1   
    30   29   37 1   
    31   30   31 1   
    32   30   33 1   
    33   30   38 1   
    34   31   32 2   
    35   31   41 1   
    36   33   34 1   
    37   33   39 1   
    38   33   40 1   
    39   34   35 1   
    40   34   36 1   
    41   41   42 1   
    42   41   45 1   
    43   42   43 1   
    44   42   46 1   
    45   42   47 1   
    46   43   44 2   
    47   43   48 1   
    48   48   49 1   
    49   48   56 1   
    50   49   50 1   
    51   49   52 1   
    52   49   57 1   
    53   50   51 2   
    54   50   62 1   
    55   52   53 1   
    56   52   58 1   
    57   52   59 1   
    58   53   54 1   
    59   53   55 2   
    60   54   60 1   
    61   54   61 1   
    62   62   63 1   
    63   62   66 1   
    64   63   64 1   
    65   63   67 1   
    66   63   68 1   
    67   64   65 2   
    68   64   69 1   
    69   69   70 1   
    70   69   76 1   
    71   70   71 1   
    72   70   73 1   
    73   70   77 1   
    74   71   72 2   
    75   71   83 1   
    76   73   74 1   
    77   73   75 1   
    78   73   78 1   
    79   74   80 1   
    80   74   81 1   
    81   74   82 1   
    82   75   79 1   
    83   83   84 1   
    84   83   91 1   
    85   84   85 1   
    86   84   87 1   
    87   84   92 1   
    88   85   86 2   
    89   85  102 1   
    90   87   88 1   
    91   87   89 1   
    92   87   93 1   
    93   88   90 1   
    94   88   94 1   
    95   88   95 1   
    96   89   96 1   
    97   89   97 1   
    98   89   98 1   
    99   90   99 1   
   100   90  100 1   
   101   90  101 1   
   102  102  103 1   
   103  102  110 1   
   104  103  104 1   
   105  103  106 1   
   106  103  111 1   
   107  104  105 2   
   108  104  114 1   
   109  106  107 1   
   110  106  112 1   
   111  106  113 1   
   112  107  108 1   
   113  107  109 1   
   114  114  115 1   
   115  114  125 1   
   116  115  116 1   
   117  115  118 1   
   118  115  126 1   
   119  116  117 2   
   120  116  134 1   
   121  118  119 1   
   122  118  127 1   
   123  118  128 1   
   124  119  120 ar  
   125  119  121 ar  
   126  120  122 ar  
   127  120  129 1   
   128  121  123 ar  
   129  121  130 1   
   130  122  124 ar  
   131  122  131 1   
   132  123  124 ar  
   133  123  132 1   
   134  124  133 1   
   135  134  135 1   
   136  134  140 1   
   137  135  136 1   
   138  135  138 1   
   139  135  141 1   
   140  136  137 2   
   141  136  148 1   
   142  138  139 1   
   143  138  142 1   
   144  138  143 1   
   145  139  140 1   
   146  139  144 1   
   147  139  145 1   
   148  140  146 1   
   149  140  147 1   
   150  148  149 1   
   151  148  157 1   
   152  149  150 1   
   153  149  152 1   
   154  149  158 1   
   155  150  151 2   
   156  150  163 1   
   157  152  153 1   
   158  152  159 1   
   159  152  160 1   
   160  153  154 1   
   161  153  161 1   
   162  153  162 1   
   163  154  155 1   
   164  154  156 1   
   165  163  164 1   
   166  163  168 1   
   167  164  165 1   
   168  164  166 1   
   169  164  167 1   
   170  170  171 1   
   171  170  172 1   
   172  173  174 1   
   173  173  175 1   
@<TRIPOS>SUBSTRUCTURE
     1 MOL         1 TEMP              0 ****  ****    0 ROOT
