@<TRIPOS>MOLECULE
MOL
  179   176     1     0     0
SMALL
resp


@<TRIPOS>ATOM
      1 C1         -1.3520    3.9500   -4.1800 c3        1 MOL     -0.352663
      2 C2         -0.6390    3.4940   -2.9430 c         1 MOL      0.683208
      3 O1         -1.1570    3.5370   -1.8330 o         1 MOL     -0.583643
      4 H1         -1.9460    3.1290   -4.5800 hc        1 MOL      0.094788
      5 H2         -2.0070    4.7860   -3.9350 hc        1 MOL      0.094788
      6 H3         -0.6210    4.2660   -4.9250 hc        1 MOL      0.094788
      7 N1          0.6000    3.0350   -3.0730 n         1 MOL     -0.688256
      8 C3          1.4610    2.6070   -2.0140 c3        1 MOL      0.143813
      9 C4          2.4400    3.7170   -1.5930 c         1 MOL      0.569662
     10 O2          3.5930    3.7450   -1.9390 o         1 MOL     -0.484764
     11 C5          2.2110    1.3530   -2.5750 c3        1 MOL     -0.189108
     12 C6          2.9380    0.6920   -1.4300 c         1 MOL      0.601337
     13 O3          4.2080    0.6200   -1.5640 o         1 MOL     -0.685559
     14 O4          2.3860    0.4990   -0.3190 o         1 MOL     -0.685559
     15 H4          0.9330    3.0600   -4.0290 hn        1 MOL      0.345910
     16 H5          0.8740    2.2220   -1.1880 h1        1 MOL      0.019307
     17 H6          2.9740    1.7290   -3.2680 hc        1 MOL      0.060848
     18 H7          1.5470    0.6600   -3.0940 hc        1 MOL      0.060848
     19 N2          1.9000    4.6440   -0.7600 n         1 MOL     -0.470076
     20 C7          2.6870    5.7410   -0.2490 c3        1 MOL     -0.025791
     21 C8          3.7620    5.3710    0.7430 c         1 MOL      0.261376
     22 O5          4.7190    6.1620    0.9640 o         1 MOL     -0.507197
     23 C9          1.7230    6.7650    0.3960 c3        1 MOL     -0.002009
     24 C10         0.4830    7.1630   -0.4980 c3        1 MOL     -0.122973
     25 C11         0.7680    8.0070   -1.7350 c3        1 MOL     -0.182678
     26 C12         1.2960    9.3690   -1.2170 c3        1 MOL      0.097969
     27 N3          2.4460    9.8130   -1.9100 n4        1 MOL     -0.292680
     28 H8          1.0060    4.4440   -0.3240 hn        1 MOL      0.377810
     29 H9          3.2180    6.1990   -1.0890 h1        1 MOL      0.105967
     30 H10         2.2850    7.6720    0.6310 hc        1 MOL      0.043004
     31 H11         1.2970    6.5010    1.3620 hc        1 MOL      0.043004
     32 H12        -0.2200    7.6730    0.1670 hc        1 MOL      0.084668
     33 H13        -0.0540    6.2380   -0.7270 hc        1 MOL      0.084668
     34 H14         0.0050    8.3160   -2.4540 hc        1 MOL      0.082018
     35 H15         1.5720    7.4840   -2.2650 hc        1 MOL      0.082018
     36 H16         1.5050    9.2310   -0.1560 hx        1 MOL      0.060372
     37 H17         0.4930   10.1100   -1.2870 hx        1 MOL      0.060372
     38 H18         3.3080    9.2760   -1.9960 hn        1 MOL      0.310495
     39 H19         2.0980    9.9580   -2.8490 hn        1 MOL      0.310495
     40 H20         2.6770   10.7030   -1.5080 hn        1 MOL      0.310495
     41 N4          3.5210    4.2440    1.4510 n         1 MOL     -0.031507
     42 C13         4.5160    3.7400    2.3930 c3        1 MOL     -0.257860
     43 C14         5.6360    2.8740    1.8860 c         1 MOL      0.540800
     44 O6          6.6350    2.6370    2.5590 o         1 MOL     -0.521719
     45 C15         3.7850    3.0080    3.5320 c3        1 MOL     -0.039246
     46 C16         2.8690    1.9020    3.0730 c         1 MOL      0.709896
     47 O7          1.6840    2.1520    2.7170 o         1 MOL     -0.717194
     48 O8          3.3440    0.7280    3.0450 o         1 MOL     -0.717194
     49 H21         2.6240    3.7740    1.3760 hn        1 MOL      0.136727
     50 H22         4.9710    4.6030    2.8730 h1        1 MOL      0.154867
     51 H23         3.2010    3.6700    4.1680 hc        1 MOL      0.022880
     52 H24         4.4750    2.5880    4.2590 hc        1 MOL      0.022880
     53 N5          5.5580    2.5910    0.5350 n         1 MOL     -0.149848
     54 C17         6.6370    1.9570   -0.1580 c3        1 MOL     -0.428931
     55 C18         6.8540    0.4740    0.0830 c         1 MOL      0.571457
     56 O9          7.8750   -0.0830   -0.3460 o         1 MOL     -0.569808
     57 H25         4.7030    2.7260    0.0000 hn        1 MOL      0.232648
     58 H26         7.5510    2.4730    0.1390 h1        1 MOL      0.170126
     59 H27         6.5460    2.0760   -1.2300 h1        1 MOL      0.170126
     60 N6          5.9070   -0.1140    0.8220 n         1 MOL     -0.151030
     61 C19         6.0280   -1.5030    1.3390 c3        1 MOL     -0.156562
     62 C20         5.8340   -2.4920    0.1830 c         1 MOL      0.314392
     63 O10         6.2160   -3.6400    0.4300 o         1 MOL     -0.484786
     64 C21         5.2950   -1.8090    2.6020 c3        1 MOL      0.028663
     65 C22         3.9010   -2.3810    2.3660 c         1 MOL      0.471022
     66 N7          3.3010   -3.1020    3.3460 n         1 MOL     -0.845356
     67 O11         3.2570   -2.1050    1.3690 o         1 MOL     -0.320472
     68 H28         5.1000    0.4230    1.1160 hn        1 MOL      0.107597
     69 H29         7.0520   -1.5950    1.7150 h1        1 MOL      0.132181
     70 H30         5.1540   -0.9710    3.2770 hc        1 MOL      0.041805
     71 H31         5.8390   -2.5800    3.1550 hc        1 MOL      0.041805
     72 H32         3.9480   -3.4490    4.0420 hn        1 MOL      0.369391
     73 H33         2.5020   -3.6790    3.1530 hn        1 MOL      0.369391
     74 N8          5.3540   -2.1520   -1.0020 n         1 MOL     -0.087986
     75 C23         5.1890   -3.0880   -2.1570 c3        1 MOL     -0.294247
     76 C24         3.7570   -3.6080   -2.3950 c         1 MOL      0.711784
     77 O12         3.5470   -4.4330   -3.3200 o         1 MOL     -0.586469
     78 H34         5.0070   -1.1990   -1.0650 hn        1 MOL      0.234432
     79 H35         5.8210   -3.9650   -2.1590 h1        1 MOL      0.138440
     80 H36         5.4170   -2.5210   -3.0610 h1        1 MOL      0.138440
     81 N9          2.7720   -3.2510   -1.5260 n         1 MOL     -0.686048
     82 C25         1.4880   -3.9610   -1.3430 c3        1 MOL      0.268693
     83 C26         0.4440   -2.9520   -0.8970 c         1 MOL      0.634770
     84 O13         0.7720   -2.1380   -0.0700 o         1 MOL     -0.657875
     85 C27         1.5830   -5.0350   -0.2890 c3        1 MOL     -0.181147
     86 C28         2.6190   -6.1020   -0.6190 ca        1 MOL     -0.023749
     87 C29         3.8870   -6.1920    0.1240 ca        1 MOL     -0.048720
     88 C30         2.2160   -7.1070   -1.5070 ca        1 MOL     -0.048720
     89 C31         4.7160   -7.2980   -0.1720 ca        1 MOL     -0.406831
     90 C32         3.0820   -8.2310   -1.7070 ca        1 MOL     -0.406831
     91 C33         4.4180   -8.2900   -1.1450 ca        1 MOL      0.496335
     92 O14         5.2340   -9.3290   -1.3970 oh        1 MOL     -0.486137
     93 H37         2.9940   -2.5580   -0.8180 hn        1 MOL      0.364121
     94 H38         1.1190   -4.3810   -2.2870 h1        1 MOL      0.028459
     95 H39         0.5830   -5.4390   -0.1560 hc        1 MOL      0.042529
     96 H40         1.8130   -4.5650    0.6750 hc        1 MOL      0.042529
     97 H41         4.1960   -5.4600    0.8510 ha        1 MOL      0.126084
     98 H42         1.3280   -7.0360   -2.1110 ha        1 MOL      0.126084
     99 H43         5.6260   -7.4370    0.4010 ha        1 MOL      0.164904
    100 H44         2.7690   -9.0590   -2.3160 ha        1 MOL      0.164904
    101 H45         4.7530   -9.9770   -1.9070 ho        1 MOL      0.345103
    102 N10        -0.8190   -3.1160   -1.3320 n         1 MOL     -0.483796
    103 C34        -1.9710   -2.2540   -1.0230 c3        1 MOL     -0.072415
    104 C35        -3.1920   -3.0190   -0.6190 c         1 MOL      0.594655
    105 O15        -3.5520   -4.0150   -1.2360 o         1 MOL     -0.571422
    106 C36        -2.3770   -1.2760   -2.1730 c3        1 MOL      0.083605
    107 C37        -2.7010   -1.9840   -3.4980 c3        1 MOL     -0.092698
    108 C38        -1.1410   -0.3330   -2.2350 c3        1 MOL     -0.564563
    109 C39        -3.1250   -1.0540   -4.6310 c3        1 MOL     -0.118329
    110 H46        -0.9980   -3.8680   -1.9810 hn        1 MOL      0.272085
    111 H47        -1.7620   -1.6600   -0.1380 h1        1 MOL      0.097711
    112 H48        -3.2010   -0.6140   -1.9340 hc        1 MOL     -0.048856
    113 H49        -3.5750   -2.6010   -3.3030 hc        1 MOL      0.063452
    114 H50        -1.8570   -2.5980   -3.8090 hc        1 MOL      0.063452
    115 H51        -1.1340    0.1190   -1.2480 hc        1 MOL      0.186067
    116 H52        -0.1730   -0.7380   -2.5300 hc        1 MOL      0.186067
    117 H53        -1.3890    0.4010   -3.0040 hc        1 MOL      0.186067
    118 H54        -3.8310   -0.2800   -4.3360 hc        1 MOL      0.035153
    119 H55        -2.2740   -0.5260   -5.0640 hc        1 MOL      0.035153
    120 H56        -3.4730   -1.6670   -5.4670 hc        1 MOL      0.035153
    121 N11        -3.9190   -2.5600    0.3870 n         1 MOL     -0.359797
    122 C40        -5.2290   -3.0560    0.9110 c3        1 MOL      0.010948
    123 C41        -6.4380   -2.4930    0.2060 c         1 MOL      0.602944
    124 O16        -6.2720   -1.5220   -0.4700 o         1 MOL     -0.443261
    125 C42        -5.1530   -2.9180    2.4440 c3        1 MOL     -0.239661
    126 O17        -5.5340   -1.6190    2.9640 oh        1 MOL     -0.510430
    127 H57        -3.5480   -1.7700    0.8870 hn        1 MOL      0.221801
    128 H58        -5.1890   -4.1230    0.7050 h1        1 MOL      0.067579
    129 H59        -4.1330   -3.1440    2.7840 h1        1 MOL      0.150239
    130 H60        -5.7490   -3.6940    2.9120 h1        1 MOL      0.150239
    131 H61        -5.2540   -1.4840    3.8750 ho        1 MOL      0.399779
    132 N12        -7.6770   -2.9170    0.4880 n         1 MOL     -0.559899
    133 C43        -8.9360   -2.2590    0.0690 c3        1 MOL      0.148567
    134 C44        -8.9820   -0.7490    0.5710 c         1 MOL      0.477184
    135 O18        -9.4410    0.0360   -0.2220 o         1 MOL     -0.522337
    136 C45        -9.9990   -3.1200    0.7090 c3        1 MOL     -0.309392
    137 H62        -7.8320   -3.5980    1.2190 hn        1 MOL      0.298103
    138 H63        -8.9880   -2.3140   -1.0230 h1        1 MOL      0.108337
    139 H64       -11.0100   -2.7720    0.4810 hc        1 MOL      0.092073
    140 H65        -9.8700   -4.1410    0.3440 hc        1 MOL      0.092073
    141 H66        -9.9490   -3.2280    1.7860 hc        1 MOL      0.092073
    142 N13        -8.3830   -0.4120    1.7150 n         1 MOL     -0.331871
    143 C46        -8.3440    0.9650    2.1230 c3        1 MOL      0.104344
    144 C47        -7.3530    1.8870    1.3650 c         1 MOL      0.337723
    145 O19        -7.7160    3.0140    1.0210 o         1 MOL     -0.499491
    146 C48        -8.0690    1.0020    3.5770 c3        1 MOL     -0.263465
    147 H67        -8.0320   -1.1530    2.3100 hn        1 MOL      0.212914
    148 H68        -9.3560    1.3460    1.9870 h1        1 MOL      0.091554
    149 H69        -8.1840    2.0440    3.8810 hc        1 MOL      0.069486
    150 H70        -8.8620    0.4750    4.1100 hc        1 MOL      0.069486
    151 H71        -7.0740    0.5930    3.6870 hc        1 MOL      0.069486
    152 N14        -6.2110    1.3200    0.9160 n         1 MOL     -0.000592
    153 C49        -5.2380    1.9830    0.0940 c3        1 MOL     -0.399945
    154 C50        -5.7230    1.9930   -1.3680 c         1 MOL      0.622004
    155 O20        -5.4750    3.0400   -2.0260 o         1 MOL     -0.584005
    156 C51        -3.8290    1.3250    0.1700 c3        1 MOL      0.104109
    157 C52        -3.1300    1.5450    1.5470 c3        1 MOL     -0.099820
    158 C53        -1.8190    0.7940    1.6260 c         1 MOL      0.739104
    159 O21        -0.7740    1.3170    1.1700 o         1 MOL     -0.750266
    160 O22        -1.6790   -0.2880    2.2210 o         1 MOL     -0.750266
    161 H72        -6.0320    0.3650    1.1840 hn        1 MOL      0.176275
    162 H73        -5.1750    3.0080    0.4570 h1        1 MOL      0.163891
    163 H74        -3.3400    1.8190   -0.6700 hc        1 MOL      0.083832
    164 H75        -3.9800    0.2660   -0.0430 hc        1 MOL      0.083832
    165 H76        -3.7550    1.1620    2.3580 hc        1 MOL     -0.001978
    166 H77        -2.9700    2.6090    1.7000 hc        1 MOL     -0.001978
    167 N15        -6.4950    1.0610   -1.9360 n         1 MOL     -0.167958
    168 C54        -7.2960    1.3090   -3.1370 c3        1 MOL     -0.316498
    169 H78        -7.7890    0.3870   -3.4420 h1        1 MOL      0.122335
    170 H79        -8.0480    2.0680   -2.9220 h1        1 MOL      0.122335
    171 H80        -6.6480    1.6570   -3.9420 h1        1 MOL      0.122335
    172 H81        -6.7670    0.2880   -1.3570 hn        1 MOL      0.156364
    173 Ca1         1.1580   -0.2970    1.8530 Ca        1 MOL      1.756968
    174 O23         0.2930   -2.8020    2.5640 oh        1 MOL     -0.849492
    175 H82        -0.3760   -3.3840    2.1830 ho        1 MOL      0.415994
    176 H83         0.4390   -3.1460    3.4400 ho        1 MOL      0.415994
    177 O24         0.5150   -0.0750    4.4380 oh        1 MOL     -0.849492
    178 H84         0.7210    0.6410    5.0270 ho        1 MOL      0.415994
    179 H85        -0.1450   -0.5950    4.9070 ho        1 MOL      0.415994
@<TRIPOS>BOND
     1    1    2 1   
     2    1    4 1   
     3    1    5 1   
     4    1    6 1   
     5    2    3 2   
     6    2    7 1   
     7    7    8 1   
     8    7   15 1   
     9    8    9 1   
    10    8   11 1   
    11    8   16 1   
    12    9   10 2   
    13    9   19 1   
    14   11   12 1   
    15   11   17 1   
    16   11   18 1   
    17   12   13 1   
    18   12   14 1   
    19   19   20 1   
    20   19   28 1   
    21   20   21 1   
    22   20   23 1   
    23   20   29 1   
    24   21   22 2   
    25   21   41 1   
    26   23   24 1   
    27   23   30 1   
    28   23   31 1   
    29   24   25 1   
    30   24   32 1   
    31   24   33 1   
    32   25   26 1   
    33   25   34 1   
    34   25   35 1   
    35   26   27 1   
    36   26   36 1   
    37   26   37 1   
    38   27   38 1   
    39   27   39 1   
    40   27   40 1   
    41   41   42 1   
    42   41   49 1   
    43   42   43 1   
    44   42   45 1   
    45   42   50 1   
    46   43   44 2   
    47   43   53 1   
    48   45   46 1   
    49   45   51 1   
    50   45   52 1   
    51   46   47 1   
    52   46   48 1   
    53   53   54 1   
    54   53   57 1   
    55   54   55 1   
    56   54   58 1   
    57   54   59 1   
    58   55   56 2   
    59   55   60 1   
    60   60   61 1   
    61   60   68 1   
    62   61   62 1   
    63   61   64 1   
    64   61   69 1   
    65   62   63 2   
    66   62   74 1   
    67   64   65 1   
    68   64   70 1   
    69   64   71 1   
    70   65   66 1   
    71   65   67 2   
    72   66   72 1   
    73   66   73 1   
    74   74   75 1   
    75   74   78 1   
    76   75   76 1   
    77   75   79 1   
    78   75   80 1   
    79   76   77 2   
    80   76   81 1   
    81   81   82 1   
    82   81   93 1   
    83   82   83 1   
    84   82   85 1   
    85   82   94 1   
    86   83   84 2   
    87   83  102 1   
    88   85   86 1   
    89   85   95 1   
    90   85   96 1   
    91   86   87 ar  
    92   86   88 ar  
    93   87   89 ar  
    94   87   97 1   
    95   88   90 ar  
    96   88   98 1   
    97   89   91 ar  
    98   89   99 1   
    99   90   91 ar  
   100   90  100 1   
   101   91   92 1   
   102   92  101 1   
   103  102  103 1   
   104  102  110 1   
   105  103  104 1   
   106  103  106 1   
   107  103  111 1   
   108  104  105 2   
   109  104  121 1   
   110  106  107 1   
   111  106  108 1   
   112  106  112 1   
   113  107  109 1   
   114  107  113 1   
   115  107  114 1   
   116  108  115 1   
   117  108  116 1   
   118  108  117 1   
   119  109  118 1   
   120  109  119 1   
   121  109  120 1   
   122  121  122 1   
   123  121  127 1   
   124  122  123 1   
   125  122  125 1   
   126  122  128 1   
   127  123  124 2   
   128  123  132 1   
   129  125  126 1   
   130  125  129 1   
   131  125  130 1   
   132  126  131 1   
   133  132  133 1   
   134  132  137 1   
   135  133  134 1   
   136  133  136 1   
   137  133  138 1   
   138  134  135 2   
   139  134  142 1   
   140  136  139 1   
   141  136  140 1   
   142  136  141 1   
   143  142  143 1   
   144  142  147 1   
   145  143  144 1   
   146  143  146 1   
   147  143  148 1   
   148  144  145 2   
   149  144  152 1   
   150  146  149 1   
   151  146  150 1   
   152  146  151 1   
   153  152  153 1   
   154  152  161 1   
   155  153  154 1   
   156  153  156 1   
   157  153  162 1   
   158  154  155 2   
   159  154  167 1   
   160  156  157 1   
   161  156  163 1   
   162  156  164 1   
   163  157  158 1   
   164  157  165 1   
   165  157  166 1   
   166  158  159 1   
   167  158  160 1   
   168  167  168 1   
   169  167  172 1   
   170  168  169 1   
   171  168  170 1   
   172  168  171 1   
   173  174  175 1   
   174  174  176 1   
   175  177  178 1   
   176  177  179 1   
@<TRIPOS>SUBSTRUCTURE
     1 MOL         1 TEMP              0 ****  ****    0 ROOT
