@<TRIPOS>MOLECULE
MOL
  183   181     1     0     0
SMALL
resp


@<TRIPOS>ATOM
      1 C1         -0.6680    2.2040    6.2810 c3        1 MOL     -0.303154
      2 C2         -1.0330    2.1610    4.7740 c         1 MOL      0.714259
      3 O1         -0.2580    2.7890    4.0380 o         1 MOL     -0.584510
      4 H1         -0.6330    3.2400    6.6170 hc        1 MOL      0.066867
      5 H2         -1.4210    1.6610    6.8530 hc        1 MOL      0.066867
      6 H3          0.3080    1.7410    6.4320 hc        1 MOL      0.066867
      7 N1         -2.0460    1.4500    4.3300 n         1 MOL     -0.609026
      8 C3         -2.6070    1.2730    2.9620 c3        1 MOL      0.424193
      9 C4         -3.0630    2.6730    2.3930 c         1 MOL      0.353121
     10 O2         -4.1130    3.2170    2.8370 o         1 MOL     -0.544957
     11 C5         -3.7090    0.2290    2.9440 c3        1 MOL     -0.493037
     12 C6         -4.4170    0.1830    1.5970 c         1 MOL      0.667812
     13 O3         -5.5320   -0.4720    1.6060 o         1 MOL     -0.594297
     14 O4         -3.9470    0.8450    0.6220 o         1 MOL     -0.594297
     15 H4         -2.5630    0.9380    5.0300 hn        1 MOL      0.301035
     16 H5         -1.8480    0.8000    2.3530 h1        1 MOL     -0.032268
     17 H6         -4.4200    0.5180    3.7150 hc        1 MOL      0.095129
     18 H7         -3.2640   -0.7550    3.1160 hc        1 MOL      0.095129
     19 N2         -2.2590    3.2980    1.5430 n         1 MOL     -0.106980
     20 C7         -2.5360    4.6820    1.1800 c3        1 MOL     -0.042970
     21 C8         -3.6820    4.7010    0.1130 c         1 MOL      0.345046
     22 O5         -4.7060    5.3440    0.2190 o         1 MOL     -0.540539
     23 C9         -1.1980    5.4010    0.7210 c3        1 MOL      0.168293
     24 C10        -0.1600    5.5810    1.8190 c3        1 MOL     -0.139444
     25 C11        -1.6200    6.7370    0.0940 c3        1 MOL     -0.224234
     26 C12         1.3500    5.7200    1.4030 c3        1 MOL      0.039358
     27 H8         -1.5770    2.7650    1.0260 hn        1 MOL      0.043468
     28 H9         -2.7970    5.2240    2.0810 h1        1 MOL      0.084327
     29 H10        -0.7540    4.8060   -0.0740 hc        1 MOL      0.015147
     30 H11        -0.2040    4.5990    2.2930 hc        1 MOL      0.045360
     31 H12        -0.3600    6.2960    2.6110 hc        1 MOL      0.045360
     32 H13        -2.0010    7.3630    0.8980 hc        1 MOL      0.041887
     33 H14        -0.8100    7.2340   -0.4560 hc        1 MOL      0.041887
     34 H15        -2.3500    6.5660   -0.7010 hc        1 MOL      0.041887
     35 H16         1.6920    5.0680    0.5890 hc        1 MOL     -0.016347
     36 H17         1.5600    6.7640    1.1560 hc        1 MOL     -0.016347
     37 H18         2.0840    5.4440    2.1660 hc        1 MOL     -0.016347
     38 N3         -3.5350    3.9640   -0.9910 n         1 MOL     -0.179530
     39 C13        -4.5240    3.9090   -2.0580 c3        1 MOL     -0.012706
     40 C14        -5.8180    3.1450   -1.8020 c         1 MOL      0.417280
     41 O6         -6.6760    3.0360   -2.6890 o         1 MOL     -0.551004
     42 C15        -3.9390    3.3870   -3.4260 c3        1 MOL     -0.295911
     43 C16        -3.3650    1.9670   -3.4160 c         1 MOL      0.916568
     44 O7         -3.6240    1.1720   -2.4740 o         1 MOL     -0.745979
     45 O8         -2.5620    1.6590   -4.2850 o         1 MOL     -0.745979
     46 H19        -2.7920    3.2930   -1.1100 hn        1 MOL      0.184098
     47 H20        -4.8510    4.9340   -2.2090 h1        1 MOL      0.094260
     48 H21        -3.1520    4.0740   -3.7140 hc        1 MOL      0.058426
     49 H22        -4.7170    3.3350   -4.1960 hc        1 MOL      0.058426
     50 N4         -5.9820    2.5520   -0.6090 n         1 MOL     -0.240024
     51 C17        -7.2460    1.9910   -0.0910 c3        1 MOL     -0.155188
     52 C18        -7.7390    0.7080   -0.7830 c         1 MOL      0.533756
     53 O9         -8.9420    0.5240   -0.8030 o         1 MOL     -0.623417
     54 H23        -5.1590    2.5570   -0.0270 hn        1 MOL      0.311169
     55 H24        -8.0500    2.7270    0.0180 h1        1 MOL      0.088832
     56 H25        -7.0050    1.6500    0.9140 h1        1 MOL      0.088832
     57 N5         -6.8630   -0.1860   -1.2090 n         1 MOL     -0.186356
     58 C19        -7.2770   -1.4310   -1.8950 c3        1 MOL      0.040803
     59 C20        -7.4920   -2.5930   -0.9460 c         1 MOL      0.377443
     60 O10        -8.1650   -3.5930   -1.4150 o         1 MOL     -0.589251
     61 C21        -6.2550   -1.6340   -3.0340 c3        1 MOL     -0.191638
     62 C22        -4.7910   -1.6840   -2.6270 c         1 MOL      0.718581
     63 O11        -3.8720   -1.6870   -3.4750 o         1 MOL     -0.708215
     64 O12        -4.5330   -1.8440   -1.4190 o         1 MOL     -0.708215
     65 H26        -5.8790    0.0350   -1.0810 hn        1 MOL      0.144264
     66 H27        -8.2530   -1.2440   -2.3310 h1        1 MOL      0.087198
     67 H28        -6.4010   -0.7920   -3.7040 hc        1 MOL      0.048803
     68 H29        -6.4380   -2.5680   -3.5650 hc        1 MOL      0.048803
     69 N6         -7.0760   -2.5100    0.3050 n         1 MOL     -0.041264
     70 C23        -7.1200   -3.5880    1.3080 c3        1 MOL     -0.187891
     71 C24        -5.7530   -4.3080    1.5450 c         1 MOL      0.644595
     72 O13        -5.7020   -5.4120    2.0510 o         1 MOL     -0.604255
     73 H30        -6.6200   -1.6620    0.6320 hn        1 MOL      0.111400
     74 H31        -7.7630   -4.3150    0.8130 h1        1 MOL      0.071179
     75 H32        -7.5500   -3.2310    2.2430 h1        1 MOL      0.071179
     76 N7         -4.6650   -3.7500    1.0140 n         1 MOL     -0.345929
     77 C25        -3.2690   -4.3500    1.1170 c3        1 MOL     -0.014777
     78 C26        -2.1000   -3.3370    1.3800 c         1 MOL      0.625054
     79 O14        -2.2150   -2.1550    0.9680 o         1 MOL     -0.592962
     80 C27        -3.0550   -5.3500   -0.0560 c3        1 MOL      0.026542
     81 C28        -3.0660   -4.9640   -1.5290 c3        1 MOL     -0.261018
     82 C29        -2.0150   -4.0070   -2.1520 c         1 MOL      0.575380
     83 N8         -1.6200   -4.2290   -3.3730 n         1 MOL     -0.809086
     84 O15        -1.6040   -3.0440   -1.5470 o         1 MOL     -0.526912
     85 H33        -4.7350   -2.9200    0.4450 hn        1 MOL      0.210232
     86 H34        -3.2540   -5.0060    1.9950 h1        1 MOL      0.040345
     87 H35        -3.8980   -6.0250    0.0770 hc        1 MOL      0.012889
     88 H36        -2.1250   -5.8850    0.1220 hc        1 MOL      0.012889
     89 H37        -4.0430   -4.5370   -1.7650 hc        1 MOL      0.105745
     90 H38        -3.1470   -5.8770   -2.1110 hc        1 MOL      0.105745
     91 H39        -2.1290   -4.8780   -3.9530 hn        1 MOL      0.385444
     92 H40        -0.8500   -3.6440   -3.6570 hn        1 MOL      0.385444
     93 N9         -0.9700   -3.7940    1.9330 n         1 MOL     -0.517655
     94 C30         0.1990   -3.0020    2.1370 c3        1 MOL     -0.043016
     95 C31         1.3510   -3.3890    1.2620 c         1 MOL      0.513191
     96 O16         1.8810   -4.4850    1.3530 o         1 MOL     -0.565247
     97 C32         0.4850   -3.0950    3.6530 c3        1 MOL      0.275159
     98 C33         1.8560   -2.5330    4.1370 c3        1 MOL     -0.245274
     99 C34        -0.6380   -2.5420    4.5820 c3        1 MOL     -0.245274
    100 H41        -0.8830   -4.8030    1.8590 hn        1 MOL      0.319718
    101 H42        -0.0050   -1.9440    1.9550 h1        1 MOL      0.184324
    102 H43         0.4850   -4.1610    3.9120 hc        1 MOL     -0.050349
    103 H44         1.8300   -1.4410    4.1400 hc        1 MOL      0.049051
    104 H45         2.0540   -2.9700    5.1150 hc        1 MOL      0.049051
    105 H46         2.6870   -2.8840    3.5180 hc        1 MOL      0.049051
    106 H47        -1.5720   -3.0850    4.4370 hc        1 MOL      0.049051
    107 H48        -0.4500   -2.7220    5.6400 hc        1 MOL      0.049051
    108 H49        -0.7030   -1.4890    4.3180 hc        1 MOL      0.049051
    109 N10         1.6000   -2.4890    0.2490 n         1 MOL     -0.358506
    110 C35         2.7230   -2.7130   -0.7150 c3        1 MOL      0.178237
    111 C36         4.0870   -2.0980   -0.0840 c         1 MOL      0.382493
    112 O17         3.9940   -1.2380    0.8390 o         1 MOL     -0.383990
    113 C37         2.4050   -2.2650   -2.1120 c3        1 MOL     -0.209665
    114 C38         2.8300   -0.9010   -2.5780 c         1 MOL      0.575332
    115 N11         1.9970    0.1630   -2.6640 n         1 MOL     -0.700829
    116 O18         4.0020   -0.7330   -2.8870 o         1 MOL     -0.528657
    117 H50         1.0870   -1.6310    0.1150 hn        1 MOL      0.192996
    118 H51         2.8450   -3.7990   -0.7110 h1        1 MOL      0.030944
    119 H52         1.3370   -2.3430   -2.3220 hc        1 MOL      0.071535
    120 H53         2.8360   -2.9770   -2.8130 hc        1 MOL      0.071535
    121 H54         1.0100    0.0480   -2.4660 hn        1 MOL      0.375430
    122 H55         2.1520    1.0310   -3.1510 hn        1 MOL      0.375430
    123 N12         5.2560   -2.4530   -0.6320 n         1 MOL     -0.475229
    124 C39         6.6060   -2.0270   -0.0900 c3        1 MOL      0.207224
    125 C40         6.7250   -0.4630   -0.0120 c         1 MOL      0.557685
    126 O19         7.2950    0.0490    0.9230 o         1 MOL     -0.536684
    127 C41         7.7060   -2.6980   -0.9590 c3        1 MOL     -0.312287
    128 C42         8.9800   -2.1060   -0.5620 ca        1 MOL      0.160548
    129 C43         9.5150   -2.4120    0.6790 ca        1 MOL     -0.243107
    130 C44         9.6670   -1.3840   -1.4800 ca        1 MOL     -0.243107
    131 C45        10.7760   -1.9230    1.0500 ca        1 MOL     -0.170376
    132 C46        10.9600   -0.9200   -1.1110 ca        1 MOL     -0.170376
    133 C47        11.5540   -1.2650    0.1220 ca        1 MOL      0.268522
    134 O20        12.8900   -0.9470    0.4050 oh        1 MOL     -0.536112
    135 H56         5.2840   -3.2540   -1.2390 hn        1 MOL      0.268741
    136 H57         6.6140   -2.4460    0.9230 h1        1 MOL      0.034604
    137 H58         7.4490   -2.3650   -1.9620 hc        1 MOL      0.120752
    138 H59         7.6360   -3.7700   -0.8330 hc        1 MOL      0.120752
    139 H60         8.8940   -2.8800    1.4250 ha        1 MOL      0.146039
    140 H61         9.2470   -1.0800   -2.4300 ha        1 MOL      0.146039
    141 H62        11.1070   -2.0960    2.0690 ha        1 MOL      0.129708
    142 H63        11.4710   -0.2840   -1.8140 ha        1 MOL      0.129708
    143 H64        13.2230   -0.2940   -0.2140 ho        1 MOL      0.374205
    144 N13         6.1310    0.2660   -0.9170 n         1 MOL     -0.307106
    145 C48         6.1470    1.7130   -0.9680 c3        1 MOL     -0.027759
    146 C49         5.2580    2.3910    0.1410 c         1 MOL      0.310301
    147 O21         5.6230    3.4940    0.6420 o         1 MOL     -0.525098
    148 C50         5.8010    2.2720   -2.3880 c3        1 MOL     -0.103685
    149 C51         6.6990    1.7260   -3.5020 c3        1 MOL     -0.058353
    150 C52         6.4100    2.3390   -4.8450 c         1 MOL      0.672649
    151 O22         7.3520    2.8520   -5.5020 o         1 MOL     -0.735835
    152 O23         5.3350    2.0400   -5.3730 o         1 MOL     -0.735835
    153 H65         5.6310   -0.2390   -1.6240 hn        1 MOL      0.163155
    154 H66         7.0780    2.1770   -0.6230 h1        1 MOL      0.095826
    155 H67         5.9070    3.3530   -2.4320 hc        1 MOL      0.042730
    156 H68         4.7690    2.0510   -2.6670 hc        1 MOL      0.042730
    157 H69         6.5150    0.6510   -3.5520 hc        1 MOL     -0.001959
    158 H70         7.7380    1.9740   -3.3430 hc        1 MOL     -0.001959
    159 N14         4.1890    1.7320    0.5830 n         1 MOL     -0.123223
    160 C53         3.2680    2.1790    1.6720 c3        1 MOL     -0.299390
    161 C54         4.0530    1.7500    2.9190 c         1 MOL      0.567282
    162 O24         4.0430    2.4850    3.8830 o         1 MOL     -0.554945
    163 C55         1.9700    1.3700    1.3950 c3        1 MOL      0.320269
    164 C56         1.2770    1.8620    0.1550 c3        1 MOL      0.324747
    165 C57        -0.0140    1.0260   -0.1340 c         1 MOL      0.430525
    166 O25        -1.0640    1.6450   -0.4110 o         1 MOL     -0.603427
    167 O26         0.0070   -0.2130   -0.1780 o         1 MOL     -0.603427
    168 H71         4.0570    0.7860    0.2370 hn        1 MOL      0.293100
    169 H72         3.0170    3.2370    1.6720 h1        1 MOL      0.196606
    170 H73         1.2820    1.5150    2.2290 hc        1 MOL     -0.119313
    171 H74         2.0580    0.2900    1.2890 hc        1 MOL     -0.119313
    172 H75         1.9500    1.7810   -0.6890 hc        1 MOL     -0.120929
    173 H76         0.9770    2.9120    0.2070 hc        1 MOL     -0.120929
    174 N15         4.7150    0.5300    2.9630 n         1 MOL     -0.186246
    175 C58         5.5180    0.1420    4.1540 c3        1 MOL     -0.170509
    176 H77         5.4270    0.9120    4.9200 h1        1 MOL      0.070495
    177 H78         5.1510   -0.8070    4.5470 h1        1 MOL      0.070495
    178 H79         6.5650    0.0360    3.8680 h1        1 MOL      0.070495
    179 H80         4.6980   -0.0210    2.1150 hn        1 MOL      0.085139
    180 Ca1        -2.4300   -0.5840   -1.0020 Ca        1 MOL      1.669184
    181 O27        -0.8770   -0.2760   -3.1110 oh        1 MOL     -0.905894
    182 H81        -0.6280   -0.8270   -3.8600 ho        1 MOL      0.420673
    183 H82        -1.4410    0.3960   -3.4930 ho        1 MOL      0.420673
@<TRIPOS>BOND
     1    1    2 1   
     2    1    4 1   
     3    1    5 1   
     4    1    6 1   
     5    2    3 2   
     6    2    7 1   
     7    7    8 1   
     8    7   15 1   
     9    8    9 1   
    10    8   11 1   
    11    8   16 1   
    12    9   10 2   
    13    9   19 1   
    14   11   12 1   
    15   11   17 1   
    16   11   18 1   
    17   12   13 1   
    18   12   14 1   
    19   19   20 1   
    20   19   27 1   
    21   20   21 1   
    22   20   23 1   
    23   20   28 1   
    24   21   22 2   
    25   21   38 1   
    26   23   24 1   
    27   23   25 1   
    28   23   29 1   
    29   24   26 1   
    30   24   30 1   
    31   24   31 1   
    32   25   32 1   
    33   25   33 1   
    34   25   34 1   
    35   26   35 1   
    36   26   36 1   
    37   26   37 1   
    38   38   39 1   
    39   38   46 1   
    40   39   40 1   
    41   39   42 1   
    42   39   47 1   
    43   40   41 2   
    44   40   50 1   
    45   42   43 1   
    46   42   48 1   
    47   42   49 1   
    48   43   44 1   
    49   43   45 1   
    50   50   51 1   
    51   50   54 1   
    52   51   52 1   
    53   51   55 1   
    54   51   56 1   
    55   52   53 2   
    56   52   57 1   
    57   57   58 1   
    58   57   65 1   
    59   58   59 1   
    60   58   61 1   
    61   58   66 1   
    62   59   60 2   
    63   59   69 1   
    64   61   62 1   
    65   61   67 1   
    66   61   68 1   
    67   62   63 1   
    68   62   64 1   
    69   69   70 1   
    70   69   73 1   
    71   70   71 1   
    72   70   74 1   
    73   70   75 1   
    74   71   72 2   
    75   71   76 1   
    76   76   77 1   
    77   76   85 1   
    78   77   78 1   
    79   77   80 1   
    80   77   86 1   
    81   78   79 2   
    82   78   93 1   
    83   80   81 1   
    84   80   87 1   
    85   80   88 1   
    86   81   82 1   
    87   81   89 1   
    88   81   90 1   
    89   82   83 1   
    90   82   84 2   
    91   83   91 1   
    92   83   92 1   
    93   93   94 1   
    94   93  100 1   
    95   94   95 1   
    96   94   97 1   
    97   94  101 1   
    98   95   96 2   
    99   95  109 1   
   100   97   98 1   
   101   97   99 1   
   102   97  102 1   
   103   98  103 1   
   104   98  104 1   
   105   98  105 1   
   106   99  106 1   
   107   99  107 1   
   108   99  108 1   
   109  109  110 1   
   110  109  117 1   
   111  110  111 1   
   112  110  113 1   
   113  110  118 1   
   114  111  112 2   
   115  111  123 1   
   116  113  114 1   
   117  113  119 1   
   118  113  120 1   
   119  114  115 1   
   120  114  116 2   
   121  115  121 1   
   122  115  122 1   
   123  123  124 1   
   124  123  135 1   
   125  124  125 1   
   126  124  127 1   
   127  124  136 1   
   128  125  126 2   
   129  125  144 1   
   130  127  128 1   
   131  127  137 1   
   132  127  138 1   
   133  128  129 ar  
   134  128  130 ar  
   135  129  131 ar  
   136  129  139 1   
   137  130  132 ar  
   138  130  140 1   
   139  131  133 ar  
   140  131  141 1   
   141  132  133 ar  
   142  132  142 1   
   143  133  134 1   
   144  134  143 1   
   145  144  145 1   
   146  144  153 1   
   147  145  146 1   
   148  145  148 1   
   149  145  154 1   
   150  146  147 2   
   151  146  159 1   
   152  148  149 1   
   153  148  155 1   
   154  148  156 1   
   155  149  150 1   
   156  149  157 1   
   157  149  158 1   
   158  150  151 1   
   159  150  152 1   
   160  159  160 1   
   161  159  168 1   
   162  160  161 1   
   163  160  163 1   
   164  160  169 1   
   165  161  162 2   
   166  161  174 1   
   167  163  164 1   
   168  163  170 1   
   169  163  171 1   
   170  164  165 1   
   171  164  172 1   
   172  164  173 1   
   173  165  166 1   
   174  165  167 1   
   175  174  175 1   
   176  174  179 1   
   177  175  176 1   
   178  175  177 1   
   179  175  178 1   
   180  181  182 1   
   181  181  183 1   
@<TRIPOS>SUBSTRUCTURE
     1 MOL         1 TEMP              0 ****  ****    0 ROOT
