@<TRIPOS>MOLECULE
MOL
  179   176     1     0     0
SMALL
resp


@<TRIPOS>ATOM
      1 C1         -1.5530   -3.2630    6.9920 c3        1 MOL     -0.307799
      2 C2         -1.4880   -2.6950    5.5670 c         1 MOL      0.675266
      3 O1         -2.5880   -2.3020    5.1380 o         1 MOL     -0.551534
      4 H1         -0.5430   -3.3750    7.3860 hc        1 MOL      0.079111
      5 H2         -2.1180   -2.5830    7.6310 hc        1 MOL      0.079111
      6 H3         -2.0450   -4.2360    6.9740 hc        1 MOL      0.079111
      7 N1         -0.3730   -2.6540    4.8660 n         1 MOL     -0.520475
      8 C3         -0.3330   -2.4320    3.4630 c3        1 MOL      0.072894
      9 C4         -0.6900   -3.7730    2.7070 c         1 MOL      0.575103
     10 O2         -0.3360   -4.8540    3.1420 o         1 MOL     -0.527029
     11 C5          0.9940   -1.7770    3.0040 c3        1 MOL     -0.076613
     12 C6          1.1220   -1.5240    1.4910 c         1 MOL      0.781088
     13 O3          2.1550   -1.6960    0.8990 o         1 MOL     -0.724130
     14 O4          0.1200   -1.0690    0.8800 o         1 MOL     -0.724130
     15 H4          0.5230   -2.8820    5.2590 hn        1 MOL      0.307914
     16 H5         -1.1050   -1.7070    3.1800 h1        1 MOL      0.004658
     17 H6          1.7890   -2.4730    3.2760 hc        1 MOL      0.015891
     18 H7          1.0890   -0.8440    3.5650 hc        1 MOL      0.015891
     19 N2         -1.2210   -3.6380    1.4480 n         1 MOL     -0.358053
     20 C7         -1.6830   -4.6930    0.5860 c3        1 MOL     -0.085672
     21 C8         -0.5680   -5.5230    0.0010 c         1 MOL      0.559803
     22 O5         -0.7590   -6.7140   -0.1230 o         1 MOL     -0.586098
     23 C9         -2.5280   -4.0470   -0.5030 c3        1 MOL      0.034731
     24 C10        -3.1870   -5.1710   -1.2970 c3        1 MOL      0.018976
     25 C11        -4.3580   -4.6450   -2.2030 c3        1 MOL      0.042946
     26 C12        -5.0820   -5.9250   -2.6110 c3        1 MOL     -0.102564
     27 N3         -4.1830   -6.7050   -3.5700 n4        1 MOL     -0.412425
     28 H8         -1.4060   -2.6870    1.1640 hn        1 MOL      0.202026
     29 H9         -2.1770   -5.4110    1.2570 h1        1 MOL      0.115904
     30 H10        -1.9500   -3.5070   -1.2460 hc        1 MOL      0.018366
     31 H11        -3.3210   -3.4510   -0.0500 hc        1 MOL      0.018366
     32 H12        -3.5920   -5.8930   -0.5920 hc        1 MOL      0.000645
     33 H13        -2.4440   -5.7450   -1.8600 hc        1 MOL      0.000645
     34 H14        -3.9560   -4.1880   -3.0990 hc        1 MOL      0.047396
     35 H15        -4.9970   -3.9430   -1.6810 hc        1 MOL      0.047396
     36 H16        -5.9930   -5.5840   -3.0910 hx        1 MOL      0.122706
     37 H17        -5.2830   -6.5150   -1.7080 hx        1 MOL      0.122706
     38 H18        -3.5110   -6.0760   -4.0070 hn        1 MOL      0.346426
     39 H19        -3.6790   -7.4470   -3.0980 hn        1 MOL      0.346426
     40 H20        -4.7790   -7.0920   -4.2850 hn        1 MOL      0.346426
     41 N4          0.6220   -4.9590   -0.3240 n         1 MOL     -0.206641
     42 C13         1.8410   -5.6350   -0.7880 c3        1 MOL      0.002634
     43 C14         3.1270   -5.2910   -0.0030 c         1 MOL      0.396729
     44 O6          4.1160   -5.9900   -0.1180 o         1 MOL     -0.504075
     45 C15         2.0640   -5.3440   -2.3200 c3        1 MOL     -0.358426
     46 C16         2.0100   -3.8330   -2.7930 c         1 MOL      0.828414
     47 O7          1.9470   -2.8930   -2.0310 o         1 MOL     -0.734518
     48 O8          2.0030   -3.5640   -4.0390 o         1 MOL     -0.734518
     49 H21         0.6610   -3.9540   -0.1970 hn        1 MOL      0.094501
     50 H22         1.6550   -6.6880   -0.5990 h1        1 MOL      0.129700
     51 H23         1.3110   -5.8810   -2.8820 hc        1 MOL      0.102052
     52 H24         3.0350   -5.8100   -2.4960 hc        1 MOL      0.102052
     53 N5          3.1550   -4.2930    0.8830 n         1 MOL     -0.136771
     54 C17         4.3280   -3.9130    1.6320 c3        1 MOL     -0.109477
     55 C18         5.4150   -3.2520    0.7410 c         1 MOL      0.482748
     56 O9          6.5900   -3.3790    1.1770 o         1 MOL     -0.556027
     57 H25         2.3850   -3.6500    0.7650 hn        1 MOL      0.039827
     58 H26         4.7580   -4.7320    2.2000 h1        1 MOL      0.093991
     59 H27         3.9100   -3.1670    2.3060 h1        1 MOL      0.093991
     60 N6          5.1590   -2.6900   -0.4450 n         1 MOL     -0.292111
     61 C19         6.2260   -1.9780   -1.2170 c3        1 MOL      0.073098
     62 C20         6.9710   -0.8580   -0.4620 c         1 MOL      0.463961
     63 O10         7.9880   -0.3570   -1.0190 o         1 MOL     -0.546757
     64 C21         5.5420   -1.4440   -2.5250 c3        1 MOL     -0.372090
     65 C22         4.6590   -0.2210   -2.4380 c         1 MOL      0.750152
     66 N7          4.7100    0.6940   -3.4050 n         1 MOL     -0.806981
     67 O11         3.8270   -0.0020   -1.5640 o         1 MOL     -0.688614
     68 H28         4.2080   -2.6390   -0.7860 hn        1 MOL      0.287346
     69 H29         7.0600   -2.6430   -1.3910 h1        1 MOL      0.103751
     70 H30         5.0510   -2.2950   -3.0090 hc        1 MOL      0.121275
     71 H31         6.4140   -1.1040   -3.0750 hc        1 MOL      0.121275
     72 H32         5.3280    0.5100   -4.1880 hn        1 MOL      0.372273
     73 H33         4.1330    1.5190   -3.3870 hn        1 MOL      0.372273
     74 N8          6.4140   -0.2630    0.5910 n         1 MOL     -0.214597
     75 C23         6.9600    0.8350    1.3620 c3        1 MOL     -0.216728
     76 C24         6.0850    2.0830    1.4630 c         1 MOL      0.473110
     77 O12         6.5300    2.9960    2.1730 o         1 MOL     -0.510428
     78 H34         5.4920   -0.5600    0.8790 hn        1 MOL      0.236233
     79 H35         7.9270    1.0970    0.9450 h1        1 MOL      0.136026
     80 H36         7.1960    0.4740    2.3700 h1        1 MOL      0.136026
     81 N9          4.8850    2.0730    0.9060 n         1 MOL     -0.405511
     82 C25         3.8630    3.1450    0.9430 c3        1 MOL      0.376098
     83 C26         2.4640    2.5340    0.7370 c         1 MOL      0.249584
     84 O13         2.3260    1.6190   -0.0290 o         1 MOL     -0.330289
     85 C27         3.9840    4.1980   -0.2070 c3        1 MOL     -0.099218
     86 C28         5.2700    4.9310   -0.2250 ca        1 MOL      0.043733
     87 C29         5.2000    6.2360    0.1600 ca        1 MOL     -0.172328
     88 C30         6.4830    4.4680   -0.6420 ca        1 MOL     -0.172328
     89 C31         6.3040    7.1130    0.0340 ca        1 MOL     -0.172077
     90 C32         7.5960    5.2920   -0.7800 ca        1 MOL     -0.172077
     91 C33         7.5430    6.6220   -0.4670 ca        1 MOL      0.226419
     92 O14         8.6560    7.4090   -0.4280 oh        1 MOL     -0.455427
     93 H37         4.6360    1.1680    0.5400 hn        1 MOL      0.222510
     94 H38         3.8920    3.5580    1.9530 h1        1 MOL      0.003500
     95 H39         3.1720    4.9070   -0.0800 hc        1 MOL      0.041354
     96 H40         3.9610    3.6810   -1.1630 hc        1 MOL      0.041354
     97 H41         4.3140    6.7530    0.4950 ha        1 MOL      0.124303
     98 H42         6.5040    3.4120   -0.8750 ha        1 MOL      0.124303
     99 H43         6.1950    8.1720    0.2320 ha        1 MOL      0.124043
    100 H44         8.5310    4.8490   -1.0690 ha        1 MOL      0.124043
    101 H45         9.3560    6.8890   -0.8480 ho        1 MOL      0.359013
    102 N10         1.4250    3.0900    1.4310 n         1 MOL     -0.549775
    103 C34         0.0160    2.5920    1.2840 c3        1 MOL      0.366626
    104 C35        -0.7990    3.7350    0.5460 c         1 MOL      0.458077
    105 O15        -0.5080    4.9390    0.6360 o         1 MOL     -0.538759
    106 C36        -0.4800    2.3040    2.6750 c3        1 MOL      0.038956
    107 C37        -1.8290    1.5140    2.5930 c3        1 MOL      0.454137
    108 C38        -0.5340    3.5130    3.6870 c3        1 MOL     -0.191889
    109 C39        -2.3950    1.0470    3.9350 c3        1 MOL     -0.047355
    110 H46         1.6610    3.9120    1.9660 hn        1 MOL      0.308183
    111 H47        -0.0340    1.6840    0.6760 h1        1 MOL     -0.158593
    112 H48         0.2030    1.5460    3.0690 hc        1 MOL      0.011911
    113 H49        -1.6890    0.5150    2.1740 hc        1 MOL     -0.234026
    114 H50        -2.5860    2.1370    2.1200 hc        1 MOL     -0.234026
    115 H51        -1.1250    4.3220    3.2400 hc        1 MOL      0.037102
    116 H52        -0.8850    3.1800    4.6580 hc        1 MOL      0.037102
    117 H53         0.4950    3.8650    3.8130 hc        1 MOL      0.037102
    118 H54        -1.6330    0.4910    4.4860 hc        1 MOL      0.001209
    119 H55        -2.6840    1.9050    4.5440 hc        1 MOL      0.001209
    120 H56        -3.3020    0.4860    3.7050 hc        1 MOL      0.001209
    121 N11        -1.7920    3.3900   -0.3550 n         1 MOL     -0.265976
    122 C40        -2.7960    4.2850   -0.9840 c3        1 MOL     -0.028228
    123 C41        -4.1730    4.0520   -0.3490 c         1 MOL      0.456704
    124 O16        -4.4900    3.0300    0.2590 o         1 MOL     -0.329849
    125 C42        -2.7930    3.9270   -2.4540 c3        1 MOL     -0.189557
    126 O17        -3.1690    2.5740   -2.5850 oh        1 MOL     -0.503620
    127 H57        -1.9380    2.3940   -0.4080 hn        1 MOL      0.190969
    128 H58        -2.4720    5.3040   -0.7860 h1        1 MOL      0.087596
    129 H59        -1.7980    3.9550   -2.8960 h1        1 MOL      0.123110
    130 H60        -3.5490    4.4900   -3.0080 h1        1 MOL      0.123110
    131 H61        -2.4850    1.9930   -2.2530 ho        1 MOL      0.411017
    132 N12        -5.0780    4.9930   -0.6640 n         1 MOL     -0.374754
    133 C43        -6.4150    5.0460   -0.0090 c3        1 MOL      0.032925
    134 C44        -7.3480    3.8710   -0.3440 c         1 MOL      0.571224
    135 O18        -8.0730    3.4000    0.5400 o         1 MOL     -0.535204
    136 C45        -7.0490    6.3370   -0.4530 c3        1 MOL     -0.386723
    137 H62        -4.8840    5.6950   -1.3720 hn        1 MOL      0.266322
    138 H63        -6.2740    4.9770    1.0670 h1        1 MOL      0.106717
    139 H64        -7.9310    6.6150    0.1350 hc        1 MOL      0.122005
    140 H65        -6.2570    7.0790   -0.3350 hc        1 MOL      0.122005
    141 H66        -7.4220    6.2630   -1.4780 hc        1 MOL      0.122005
    142 N13        -7.2390    3.2710   -1.5400 n         1 MOL     -0.504712
    143 C46        -7.8570    2.0100   -1.9230 c3        1 MOL      0.251328
    144 C47        -7.2380    0.7560   -1.2850 c         1 MOL      0.261920
    145 O19        -7.8980   -0.1450   -0.7660 o         1 MOL     -0.518638
    146 C48        -7.9720    1.9680   -3.4510 c3        1 MOL     -0.330508
    147 H67        -6.5750    3.6910   -2.1690 hn        1 MOL      0.295971
    148 H68        -8.8870    1.9560   -1.5510 h1        1 MOL      0.080339
    149 H69        -6.9640    2.0740   -3.8720 hc        1 MOL      0.088110
    150 H70        -8.4110    1.0340   -3.8020 hc        1 MOL      0.088110
    151 H71        -8.5790    2.8010   -3.8060 hc        1 MOL      0.088110
    152 N14        -5.9620    0.7080   -0.9520 n         1 MOL      0.013269
    153 C49        -5.3510   -0.2170   -0.0530 c3        1 MOL     -0.213121
    154 C50        -5.6000    0.0460    1.4300 c         1 MOL      0.452635
    155 O20        -5.6690   -0.9320    2.2050 o         1 MOL     -0.561704
    156 C51        -3.8130   -0.1750   -0.4370 c3        1 MOL     -0.093899
    157 C52        -3.5380   -0.6110   -1.8960 c3        1 MOL     -0.114026
    158 C53        -2.0270   -0.4810   -2.0850 c         1 MOL      0.676051
    159 O21        -1.3550   -1.2820   -2.7170 o         1 MOL     -0.704473
    160 O22        -1.4540    0.4980   -1.5540 o         1 MOL     -0.704473
    161 H72        -5.3490    1.4930   -1.1190 hn        1 MOL      0.117586
    162 H73        -5.7710   -1.1760   -0.3590 h1        1 MOL      0.144033
    163 H74        -3.2840   -0.8600    0.2250 hc        1 MOL      0.148494
    164 H75        -3.4250    0.8280   -0.2180 hc        1 MOL      0.148494
    165 H76        -4.0890    0.0480   -2.5680 hc        1 MOL     -0.028183
    166 H77        -3.8850   -1.6470   -1.9800 hc        1 MOL     -0.028183
    167 N15        -5.9550    1.2360    1.9240 n         1 MOL      0.089347
    168 C54        -6.5820    1.3750    3.2440 c3        1 MOL     -0.346512
    169 H78        -7.6230    1.6750    3.1220 h1        1 MOL      0.121462
    170 H79        -6.5380    0.4220    3.7710 h1        1 MOL      0.121462
    171 H80        -6.0510    2.1340    3.8210 h1        1 MOL      0.121462
    172 H81        -5.8270    2.0280    1.3050 hn        1 MOL      0.028719
    173 Ca1         1.0510   -0.4870   -1.4800 Ca        1 MOL      1.769483
    174 O23         1.8380   -0.9400   -4.0840 oh        1 MOL     -0.861278
    175 H82         1.9750   -0.6170   -4.9750 ho        1 MOL      0.409329
    176 H83         1.9790   -1.8860   -4.1380 ho        1 MOL      0.409329
    177 O24         0.7240    1.8550   -2.8100 oh        1 MOL     -0.861278
    178 H84         0.1180    1.8970   -3.5490 ho        1 MOL      0.409329
    179 H85         1.0000    2.7710   -2.6940 ho        1 MOL      0.409329
@<TRIPOS>BOND
     1    1    2 1   
     2    1    4 1   
     3    1    5 1   
     4    1    6 1   
     5    2    3 2   
     6    2    7 1   
     7    7    8 1   
     8    7   15 1   
     9    8    9 1   
    10    8   11 1   
    11    8   16 1   
    12    9   10 2   
    13    9   19 1   
    14   11   12 1   
    15   11   17 1   
    16   11   18 1   
    17   12   13 1   
    18   12   14 1   
    19   19   20 1   
    20   19   28 1   
    21   20   21 1   
    22   20   23 1   
    23   20   29 1   
    24   21   22 2   
    25   21   41 1   
    26   23   24 1   
    27   23   30 1   
    28   23   31 1   
    29   24   25 1   
    30   24   32 1   
    31   24   33 1   
    32   25   26 1   
    33   25   34 1   
    34   25   35 1   
    35   26   27 1   
    36   26   36 1   
    37   26   37 1   
    38   27   38 1   
    39   27   39 1   
    40   27   40 1   
    41   41   42 1   
    42   41   49 1   
    43   42   43 1   
    44   42   45 1   
    45   42   50 1   
    46   43   44 2   
    47   43   53 1   
    48   45   46 1   
    49   45   51 1   
    50   45   52 1   
    51   46   47 1   
    52   46   48 1   
    53   53   54 1   
    54   53   57 1   
    55   54   55 1   
    56   54   58 1   
    57   54   59 1   
    58   55   56 2   
    59   55   60 1   
    60   60   61 1   
    61   60   68 1   
    62   61   62 1   
    63   61   64 1   
    64   61   69 1   
    65   62   63 2   
    66   62   74 1   
    67   64   65 1   
    68   64   70 1   
    69   64   71 1   
    70   65   66 1   
    71   65   67 2   
    72   66   72 1   
    73   66   73 1   
    74   74   75 1   
    75   74   78 1   
    76   75   76 1   
    77   75   79 1   
    78   75   80 1   
    79   76   77 2   
    80   76   81 1   
    81   81   82 1   
    82   81   93 1   
    83   82   83 1   
    84   82   85 1   
    85   82   94 1   
    86   83   84 2   
    87   83  102 1   
    88   85   86 1   
    89   85   95 1   
    90   85   96 1   
    91   86   87 ar  
    92   86   88 ar  
    93   87   89 ar  
    94   87   97 1   
    95   88   90 ar  
    96   88   98 1   
    97   89   91 ar  
    98   89   99 1   
    99   90   91 ar  
   100   90  100 1   
   101   91   92 1   
   102   92  101 1   
   103  102  103 1   
   104  102  110 1   
   105  103  104 1   
   106  103  106 1   
   107  103  111 1   
   108  104  105 2   
   109  104  121 1   
   110  106  107 1   
   111  106  108 1   
   112  106  112 1   
   113  107  109 1   
   114  107  113 1   
   115  107  114 1   
   116  108  115 1   
   117  108  116 1   
   118  108  117 1   
   119  109  118 1   
   120  109  119 1   
   121  109  120 1   
   122  121  122 1   
   123  121  127 1   
   124  122  123 1   
   125  122  125 1   
   126  122  128 1   
   127  123  124 2   
   128  123  132 1   
   129  125  126 1   
   130  125  129 1   
   131  125  130 1   
   132  126  131 1   
   133  132  133 1   
   134  132  137 1   
   135  133  134 1   
   136  133  136 1   
   137  133  138 1   
   138  134  135 2   
   139  134  142 1   
   140  136  139 1   
   141  136  140 1   
   142  136  141 1   
   143  142  143 1   
   144  142  147 1   
   145  143  144 1   
   146  143  146 1   
   147  143  148 1   
   148  144  145 2   
   149  144  152 1   
   150  146  149 1   
   151  146  150 1   
   152  146  151 1   
   153  152  153 1   
   154  152  161 1   
   155  153  154 1   
   156  153  156 1   
   157  153  162 1   
   158  154  155 2   
   159  154  167 1   
   160  156  157 1   
   161  156  163 1   
   162  156  164 1   
   163  157  158 1   
   164  157  165 1   
   165  157  166 1   
   166  158  159 1   
   167  158  160 1   
   168  167  168 1   
   169  167  172 1   
   170  168  169 1   
   171  168  170 1   
   172  168  171 1   
   173  174  175 1   
   174  174  176 1   
   175  177  178 1   
   176  177  179 1   
@<TRIPOS>SUBSTRUCTURE
     1 MOL         1 TEMP              0 ****  ****    0 ROOT
