@<TRIPOS>MOLECULE
MOL
  179   176     1     0     0
SMALL
resp


@<TRIPOS>ATOM
      1 C1          2.3240    3.8910    5.2020 c3        1 MOL     -0.331005
      2 C2          1.7870    3.3540    3.8800 c         1 MOL      0.764719
      3 O1          2.6180    3.2190    3.0190 o         1 MOL     -0.624325
      4 H1          2.4840    3.0620    5.8920 hc        1 MOL      0.077897
      5 H2          3.2690    4.4050    5.0280 hc        1 MOL      0.077897
      6 H3          1.6040    4.5870    5.6320 hc        1 MOL      0.077897
      7 N1          0.4870    2.9840    3.8050 n         1 MOL     -0.598889
      8 C3         -0.2460    2.7330    2.5670 c3        1 MOL      0.116904
      9 C4         -0.2790    4.0180    1.7410 c         1 MOL      0.464397
     10 O2         -0.7300    5.0570    2.2360 o         1 MOL     -0.542913
     11 C5         -1.7010    2.3980    2.9100 c3        1 MOL     -0.168327
     12 C6         -2.5600    2.0700    1.7260 c         1 MOL      0.866924
     13 O3         -3.7780    1.8130    1.8370 o         1 MOL     -0.759538
     14 O4         -1.9850    1.9600    0.5580 o         1 MOL     -0.759538
     15 H4         -0.0280    3.0020    4.6730 hn        1 MOL      0.324261
     16 H5          0.1620    1.9070    1.9960 h1        1 MOL     -0.014673
     17 H6         -2.1750    3.2240    3.4430 hc        1 MOL      0.046702
     18 H7         -1.7410    1.4520    3.4460 hc        1 MOL      0.046702
     19 N2          0.4130    4.0330    0.5760 n         1 MOL     -0.130928
     20 C7          0.6890    5.2120   -0.2700 c3        1 MOL     -0.140959
     21 C8         -0.5270    5.5850   -1.1970 c         1 MOL      0.489030
     22 O5         -0.5250    6.6840   -1.8400 o         1 MOL     -0.526207
     23 C9          1.8880    4.9950   -1.1200 c3        1 MOL     -0.134122
     24 C10         3.1810    4.9330   -0.3210 c3        1 MOL      0.013237
     25 C11         3.3930    6.2060    0.4500 c3        1 MOL      0.010980
     26 C12         4.8640    6.6870    0.5140 c3        1 MOL      0.005513
     27 N3          5.6140    6.0640    1.5670 n4        1 MOL     -0.344379
     28 H8          0.8170    3.1930    0.1960 hn        1 MOL      0.210147
     29 H9          0.9340    6.0900    0.3180 h1        1 MOL      0.063589
     30 H10         2.0270    5.7710   -1.8790 hc        1 MOL      0.075459
     31 H11         1.8140    4.0660   -1.6840 hc        1 MOL      0.075459
     32 H12         4.0370    4.7370   -0.9700 hc        1 MOL      0.035644
     33 H13         3.1750    4.1220    0.4060 hc        1 MOL      0.035644
     34 H14         3.0340    6.1590    1.4830 hc        1 MOL      0.042813
     35 H15         3.0070    7.1360    0.0440 hc        1 MOL      0.042813
     36 H16         4.8520    7.7560    0.7280 hx        1 MOL      0.073302
     37 H17         5.2920    6.5090   -0.4660 hx        1 MOL      0.073302
     38 H18         5.5910    5.0610    1.4860 hn        1 MOL      0.328410
     39 H19         6.5750    6.3930    1.5410 hn        1 MOL      0.328410
     40 H20         5.2320    6.4240    2.4200 hn        1 MOL      0.328410
     41 N4         -1.4900    4.6100   -1.3910 n         1 MOL     -0.254961
     42 C13        -2.6960    4.9060   -2.2400 c3        1 MOL     -0.179074
     43 C14        -4.1200    4.6400   -1.6040 c         1 MOL      0.598197
     44 O6         -5.1320    4.9270   -2.2410 o         1 MOL     -0.566335
     45 C15        -2.5380    4.2230   -3.6180 c3        1 MOL      0.046865
     46 C16        -2.2640    2.7740   -3.6900 c         1 MOL      0.709329
     47 O7         -1.6580    2.3400   -4.7070 o         1 MOL     -0.714876
     48 O8         -2.5890    2.0570   -2.7200 o         1 MOL     -0.714876
     49 H21        -1.4300    3.7360   -0.8790 hn        1 MOL      0.153661
     50 H22        -2.7730    5.9880   -2.3340 h1        1 MOL      0.122007
     51 H23        -1.7930    4.7640   -4.1990 hc        1 MOL      0.015995
     52 H24        -3.4250    4.3480   -4.2440 hc        1 MOL      0.015995
     53 N5         -4.1160    4.1610   -0.3810 n         1 MOL     -0.334890
     54 C17        -5.3300    3.9400    0.4840 c3        1 MOL     -0.145766
     55 C18        -6.1350    2.6820    0.1490 c         1 MOL      0.507197
     56 O9         -7.2360    2.4590    0.7250 o         1 MOL     -0.579911
     57 H25        -3.2140    3.9550    0.0200 hn        1 MOL      0.202380
     58 H26        -5.9700    4.8160    0.5270 h1        1 MOL      0.126781
     59 H27        -4.9880    3.8830    1.5120 h1        1 MOL      0.126781
     60 N6         -5.6810    1.7980   -0.7570 n         1 MOL     -0.206005
     61 C19        -6.4900    0.6890   -1.3740 c3        1 MOL      0.061011
     62 C20        -6.6110   -0.4160   -0.2910 c         1 MOL      0.255499
     63 O10        -7.2840   -1.4370   -0.4650 o         1 MOL     -0.459334
     64 C21        -5.7280    0.1870   -2.6320 c3        1 MOL     -0.374614
     65 C22        -4.5690   -0.7480   -2.3240 c         1 MOL      0.495468
     66 N7         -4.5260   -1.8890   -3.0160 n         1 MOL     -0.569503
     67 O11        -3.8080   -0.5720   -1.3510 o         1 MOL     -0.543687
     68 H28        -4.7390    1.9480   -1.1040 hn        1 MOL      0.113080
     69 H29        -7.4840    1.0410   -1.6770 h1        1 MOL      0.134671
     70 H30        -5.4230    1.0610   -3.2120 hc        1 MOL      0.149949
     71 H31        -6.5020   -0.3700   -3.1650 hc        1 MOL      0.149949
     72 H32        -5.2570   -1.9500   -3.7200 hn        1 MOL      0.320764
     73 H33        -3.7860   -2.5720   -2.9840 hn        1 MOL      0.320764
     74 N8         -6.0580   -0.2630    0.9210 n         1 MOL     -0.047649
     75 C23        -6.1980   -1.2010    1.9900 c3        1 MOL     -0.232716
     76 C24        -5.1920   -2.3690    2.1580 c         1 MOL      0.437008
     77 O12        -5.3400   -3.3240    2.9210 o         1 MOL     -0.516688
     78 H34        -5.4810    0.5670    0.9590 hn        1 MOL      0.266997
     79 H35        -7.1940   -1.6290    2.0630 h1        1 MOL      0.119281
     80 H36        -6.1620   -0.5870    2.8920 h1        1 MOL      0.119281
     81 N9         -4.1420   -2.2850    1.3300 n         1 MOL     -0.079178
     82 C25        -2.9910   -3.1640    1.3130 c3        1 MOL      0.221558
     83 C26        -1.6630   -2.3850    1.3680 c         1 MOL      0.382796
     84 O13        -1.5800   -1.2620    0.7860 o         1 MOL     -0.642925
     85 C27        -3.0340   -4.1960    0.1450 c3        1 MOL      0.127274
     86 C28        -4.2990   -4.9630    0.1900 ca        1 MOL     -0.274927
     87 C29        -5.4300   -4.5940   -0.5900 ca        1 MOL      0.036335
     88 C30        -4.3610   -6.0640    1.0480 ca        1 MOL      0.036335
     89 C31        -6.5570   -5.4620   -0.5670 ca        1 MOL     -0.384070
     90 C32        -5.5360   -6.8970    1.0790 ca        1 MOL     -0.384070
     91 C33        -6.6620   -6.5730    0.2710 ca        1 MOL      0.463032
     92 O14        -7.8510   -7.2560    0.2640 oh        1 MOL     -0.491767
     93 H37        -4.0390   -1.5000    0.7060 hn        1 MOL      0.104244
     94 H38        -3.1230   -3.7030    2.2500 h1        1 MOL     -0.018209
     95 H39        -2.2630   -4.9480    0.2560 hc        1 MOL     -0.003896
     96 H40        -2.8440   -3.7990   -0.8570 hc        1 MOL     -0.003896
     97 H41        -5.4340   -3.7480   -1.2610 ha        1 MOL      0.093823
     98 H42        -3.5140   -6.3510    1.6620 ha        1 MOL      0.093823
     99 H43        -7.3470   -5.2690   -1.2800 ha        1 MOL      0.160069
    100 H44        -5.5870   -7.7160    1.7760 ha        1 MOL      0.160069
    101 H45        -7.8020   -7.9570    0.9140 ho        1 MOL      0.356812
    102 N10        -0.6160   -2.8780    2.0830 n         1 MOL     -0.572794
    103 C34         0.7810   -2.3250    2.0590 c3        1 MOL      0.019297
    104 C35         1.6460   -3.3400    1.3360 c         1 MOL      0.571672
    105 O15         1.8330   -4.4450    1.7960 o         1 MOL     -0.561509
    106 C36         1.2190   -1.9660    3.4400 c3        1 MOL      0.039359
    107 C37         0.4970   -0.7770    3.9800 c3        1 MOL      0.224158
    108 C38         2.7750   -1.8960    3.5070 c3        1 MOL     -0.266914
    109 C39         0.9940   -0.4570    5.2810 c3        1 MOL     -0.408745
    110 H46        -0.8140   -3.6760    2.6590 hn        1 MOL      0.346389
    111 H47         0.7710   -1.4600    1.4020 h1        1 MOL      0.090500
    112 H48         0.9020   -2.8020    4.0570 hc        1 MOL      0.037125
    113 H49        -0.5720   -0.9690    4.0630 hc        1 MOL      0.016471
    114 H50         0.5720    0.0990    3.3300 hc        1 MOL      0.016471
    115 H51         3.3130   -2.7620    3.1360 hc        1 MOL      0.071849
    116 H52         3.2280   -1.0160    3.0530 hc        1 MOL      0.071849
    117 H53         3.0270   -1.9350    4.5730 hc        1 MOL      0.071849
    118 H54         1.0050   -1.4000    5.8350 hc        1 MOL      0.087440
    119 H55         2.0190   -0.1070    5.2450 hc        1 MOL      0.087440
    120 H56         0.2910    0.2900    5.6620 hc        1 MOL      0.087440
    121 N11         2.0780   -3.0000    0.1010 n         1 MOL     -0.259225
    122 C40         2.8720   -3.8770   -0.8100 c3        1 MOL     -0.153892
    123 C41         4.3790   -3.8780   -0.4070 c         1 MOL      0.569392
    124 O16         4.8010   -2.9660    0.2990 o         1 MOL     -0.502409
    125 C42         2.6810   -3.5070   -2.3240 c3        1 MOL     -0.140300
    126 O17         3.1080   -2.1930   -2.6200 oh        1 MOL     -0.461689
    127 H57         1.8360   -2.0830   -0.2430 hn        1 MOL      0.248755
    128 H58         2.4970   -4.8910   -0.7140 h1        1 MOL      0.090252
    129 H59         1.6030   -3.5030   -2.4950 h1        1 MOL      0.123830
    130 H60         3.2020   -4.2270   -2.9550 h1        1 MOL      0.123830
    131 H61         2.4380   -1.5540   -2.3790 ho        1 MOL      0.349014
    132 N12         5.1540   -4.7660   -1.0050 n         1 MOL     -0.486148
    133 C43         6.6560   -4.7780   -0.7150 c3        1 MOL      0.113772
    134 C44         7.3180   -3.5590   -1.3710 c         1 MOL      0.465524
    135 O18         8.2840   -3.0640   -0.7950 o         1 MOL     -0.497243
    136 C45         7.2360   -6.1310   -1.1920 c3        1 MOL     -0.434758
    137 H62         4.7280   -5.4670   -1.5980 hn        1 MOL      0.311515
    138 H63         6.8320   -4.6940    0.3530 h1        1 MOL      0.134655
    139 H64         7.1160   -6.8310   -0.3720 hc        1 MOL      0.135054
    140 H65         6.7860   -6.4650   -2.1230 hc        1 MOL      0.135054
    141 H66         8.3230   -5.9810   -1.1910 hc        1 MOL      0.135054
    142 N13         6.7300   -2.9490   -2.4140 n         1 MOL     -0.399906
    143 C46         7.1250   -1.7260   -3.0460 c3        1 MOL      0.085199
    144 C47         6.9760   -0.5900   -1.9240 c         1 MOL      0.293025
    145 O19         7.7980    0.2670   -1.6810 o         1 MOL     -0.484620
    146 C48         6.3080   -1.4820   -4.2860 c3        1 MOL     -0.191830
    147 H67         5.9570   -3.4780   -2.8020 hn        1 MOL      0.278829
    148 H68         8.1970   -1.7740   -3.2470 h1        1 MOL      0.090492
    149 H69         5.2610   -1.3940   -4.0200 hc        1 MOL      0.062940
    150 H70         6.7140   -0.5550   -4.7110 hc        1 MOL      0.062940
    151 H71         6.4520   -2.2250   -5.0750 hc        1 MOL      0.062940
    152 N14         5.8650   -0.6130   -1.2060 n         1 MOL      0.100950
    153 C49         5.5260    0.3840   -0.1660 c3        1 MOL     -0.278702
    154 C50         6.4000    0.1490    1.0930 c         1 MOL      0.475194
    155 O20         6.9440    1.1030    1.6880 o         1 MOL     -0.574438
    156 C51         3.9890    0.4360    0.0880 c3        1 MOL     -0.006556
    157 C52         3.1620    0.8830   -1.1610 c3        1 MOL     -0.001450
    158 C53         1.6510    0.6530   -0.8500 c         1 MOL      0.675916
    159 O21         0.8000    1.5920   -0.8070 o         1 MOL     -0.694772
    160 O22         1.2270   -0.5350   -0.8180 o         1 MOL     -0.694772
    161 H72         5.1850   -1.3350   -1.3740 hn        1 MOL      0.101570
    162 H73         5.8270    1.3930   -0.4620 h1        1 MOL      0.120189
    163 H74         3.6880    1.1430    0.8580 hc        1 MOL      0.035272
    164 H75         3.7010   -0.5390    0.4800 hc        1 MOL      0.035272
    165 H76         3.5470    0.2980   -1.9980 hc        1 MOL     -0.025031
    166 H77         3.3180    1.9360   -1.3930 hc        1 MOL     -0.025031
    167 N15         6.7930   -1.0920    1.3300 n         1 MOL     -0.065947
    168 C54         7.7010   -1.4080    2.4530 c3        1 MOL     -0.196429
    169 H78         7.1750   -2.0210    3.1840 h1        1 MOL      0.086278
    170 H79         8.5680   -1.9530    2.0780 h1        1 MOL      0.086278
    171 H80         8.0300   -0.4820    2.9260 h1        1 MOL      0.086278
    172 H81         6.5130   -1.8240    0.6850 hn        1 MOL      0.118963
    173 Ca1        -1.3580    0.3180   -1.2750 Ca        1 MOL      1.740213
    174 O23        -1.5010   -2.1950   -2.3300 oh        1 MOL     -0.837332
    175 H82        -0.9960   -2.1500   -3.1370 ho        1 MOL      0.396027
    176 H83        -1.3140   -3.0560   -1.9640 ho        1 MOL      0.396027
    177 O24        -0.0770    0.5400   -3.5810 oh        1 MOL     -0.837332
    178 H84        -0.7120    1.0180   -4.1260 ho        1 MOL      0.396027
    179 H85         0.4780    0.0920   -4.2130 ho        1 MOL      0.396027
@<TRIPOS>BOND
     1    1    2 1   
     2    1    4 1   
     3    1    5 1   
     4    1    6 1   
     5    2    3 2   
     6    2    7 1   
     7    7    8 1   
     8    7   15 1   
     9    8    9 1   
    10    8   11 1   
    11    8   16 1   
    12    9   10 2   
    13    9   19 1   
    14   11   12 1   
    15   11   17 1   
    16   11   18 1   
    17   12   13 1   
    18   12   14 1   
    19   19   20 1   
    20   19   28 1   
    21   20   21 1   
    22   20   23 1   
    23   20   29 1   
    24   21   22 2   
    25   21   41 1   
    26   23   24 1   
    27   23   30 1   
    28   23   31 1   
    29   24   25 1   
    30   24   32 1   
    31   24   33 1   
    32   25   26 1   
    33   25   34 1   
    34   25   35 1   
    35   26   27 1   
    36   26   36 1   
    37   26   37 1   
    38   27   38 1   
    39   27   39 1   
    40   27   40 1   
    41   41   42 1   
    42   41   49 1   
    43   42   43 1   
    44   42   45 1   
    45   42   50 1   
    46   43   44 2   
    47   43   53 1   
    48   45   46 1   
    49   45   51 1   
    50   45   52 1   
    51   46   47 1   
    52   46   48 1   
    53   53   54 1   
    54   53   57 1   
    55   54   55 1   
    56   54   58 1   
    57   54   59 1   
    58   55   56 2   
    59   55   60 1   
    60   60   61 1   
    61   60   68 1   
    62   61   62 1   
    63   61   64 1   
    64   61   69 1   
    65   62   63 2   
    66   62   74 1   
    67   64   65 1   
    68   64   70 1   
    69   64   71 1   
    70   65   66 1   
    71   65   67 2   
    72   66   72 1   
    73   66   73 1   
    74   74   75 1   
    75   74   78 1   
    76   75   76 1   
    77   75   79 1   
    78   75   80 1   
    79   76   77 2   
    80   76   81 1   
    81   81   82 1   
    82   81   93 1   
    83   82   83 1   
    84   82   85 1   
    85   82   94 1   
    86   83   84 2   
    87   83  102 1   
    88   85   86 1   
    89   85   95 1   
    90   85   96 1   
    91   86   87 ar  
    92   86   88 ar  
    93   87   89 ar  
    94   87   97 1   
    95   88   90 ar  
    96   88   98 1   
    97   89   91 ar  
    98   89   99 1   
    99   90   91 ar  
   100   90  100 1   
   101   91   92 1   
   102   92  101 1   
   103  102  103 1   
   104  102  110 1   
   105  103  104 1   
   106  103  106 1   
   107  103  111 1   
   108  104  105 2   
   109  104  121 1   
   110  106  107 1   
   111  106  108 1   
   112  106  112 1   
   113  107  109 1   
   114  107  113 1   
   115  107  114 1   
   116  108  115 1   
   117  108  116 1   
   118  108  117 1   
   119  109  118 1   
   120  109  119 1   
   121  109  120 1   
   122  121  122 1   
   123  121  127 1   
   124  122  123 1   
   125  122  125 1   
   126  122  128 1   
   127  123  124 2   
   128  123  132 1   
   129  125  126 1   
   130  125  129 1   
   131  125  130 1   
   132  126  131 1   
   133  132  133 1   
   134  132  137 1   
   135  133  134 1   
   136  133  136 1   
   137  133  138 1   
   138  134  135 2   
   139  134  142 1   
   140  136  139 1   
   141  136  140 1   
   142  136  141 1   
   143  142  143 1   
   144  142  147 1   
   145  143  144 1   
   146  143  146 1   
   147  143  148 1   
   148  144  145 2   
   149  144  152 1   
   150  146  149 1   
   151  146  150 1   
   152  146  151 1   
   153  152  153 1   
   154  152  161 1   
   155  153  154 1   
   156  153  156 1   
   157  153  162 1   
   158  154  155 2   
   159  154  167 1   
   160  156  157 1   
   161  156  163 1   
   162  156  164 1   
   163  157  158 1   
   164  157  165 1   
   165  157  166 1   
   166  158  159 1   
   167  158  160 1   
   168  167  168 1   
   169  167  172 1   
   170  168  169 1   
   171  168  170 1   
   172  168  171 1   
   173  174  175 1   
   174  174  176 1   
   175  177  178 1   
   176  177  179 1   
@<TRIPOS>SUBSTRUCTURE
     1 MOL         1 TEMP              0 ****  ****    0 ROOT
