@<TRIPOS>MOLECULE
MOL
  189   185     1     0     0
SMALL
resp


@<TRIPOS>ATOM
      1 C1         -0.7380    3.1940    6.2780 c3        1 MOL     -0.417011
      2 C2         -0.9490    2.7520    4.8240 c         1 MOL      0.817406
      3 O1         -0.0030    2.7920    4.0830 o         1 MOL     -0.631688
      4 H1         -0.6680    2.3140    6.9180 hc        1 MOL      0.105324
      5 H2          0.1840    3.7710    6.3520 hc        1 MOL      0.105324
      6 H3         -1.5790    3.8090    6.5970 hc        1 MOL      0.105324
      7 N1         -2.2000    2.3720    4.3710 n         1 MOL     -0.721635
      8 C3         -2.5360    2.0510    2.9280 c3        1 MOL      0.028450
      9 C4         -2.7730    3.3510    2.1700 c         1 MOL      0.639388
     10 O2         -3.4480    4.2850    2.6870 o         1 MOL     -0.568888
     11 C5         -3.7350    1.0830    3.0060 c3        1 MOL     -0.005100
     12 C6         -4.2800    0.4580    1.6790 c         1 MOL      0.606353
     13 O3         -3.6580    0.7700    0.6370 o         1 MOL     -0.652097
     14 O4         -5.2510   -0.3290    1.7380 o         1 MOL     -0.652097
     15 H4         -2.9550    2.3490    5.0470 hn        1 MOL      0.355515
     16 H5         -1.7340    1.4730    2.4630 h1        1 MOL     -0.049678
     17 H6         -4.6040    1.5140    3.5130 hc        1 MOL      0.016897
     18 H7         -3.4390    0.2470    3.6450 hc        1 MOL      0.016897
     19 N2         -2.2180    3.6040    0.9710 n         1 MOL     -0.308394
     20 C7         -2.1400    4.9300    0.3220 c3        1 MOL     -0.028535
     21 C8         -3.3450    5.0560   -0.5900 c         1 MOL      0.452582
     22 O5         -4.0190    6.0610   -0.5560 o         1 MOL     -0.549131
     23 C9         -0.8170    4.9930   -0.4320 c3        1 MOL     -0.170656
     24 C10         0.4250    5.1320    0.4870 c3        1 MOL      0.166049
     25 C11         1.6880    5.1250   -0.3580 c3        1 MOL     -0.183966
     26 C12         3.0140    4.8780    0.3830 c3        1 MOL      0.102375
     27 N3          3.2410    5.8390    1.5370 n4        1 MOL     -0.425438
     28 H8         -1.4560    2.9680    0.8030 hn        1 MOL      0.214785
     29 H9         -2.1870    5.7750    1.0130 h1        1 MOL      0.072706
     30 H10        -0.7340    5.8060   -1.1550 hc        1 MOL      0.073960
     31 H11        -0.7970    4.0850   -1.0420 hc        1 MOL      0.073960
     32 H12         0.4180    4.3470    1.2440 hc        1 MOL     -0.004087
     33 H13         0.4600    6.1010    0.9920 hc        1 MOL     -0.004087
     34 H14         1.7640    6.0280   -0.9620 hc        1 MOL      0.050504
     35 H15         1.5540    4.2430   -0.9890 hc        1 MOL      0.050504
     36 H16         3.8560    4.9370   -0.2980 hx        1 MOL      0.069787
     37 H17         2.8980    3.8600    0.7400 hx        1 MOL      0.069787
     38 H18         2.6810    5.7180    2.3650 hn        1 MOL      0.340215
     39 H19         4.1890    5.7870    1.8810 hn        1 MOL      0.340215
     40 H20         3.0690    6.7600    1.1750 hn        1 MOL      0.340215
     41 N4         -3.6800    4.0630   -1.4490 n         1 MOL     -0.165125
     42 C13        -4.7550    3.9870   -2.4370 c3        1 MOL     -0.063889
     43 C14        -5.9640    3.1990   -1.9200 c         1 MOL      0.379717
     44 O6         -7.0630    3.1730   -2.5470 o         1 MOL     -0.490110
     45 C15        -4.2820    3.3300   -3.7600 c3        1 MOL     -0.283824
     46 C16        -3.4070    2.0520   -3.4780 c         1 MOL      0.817213
     47 O7         -2.7970    1.7030   -4.5410 o         1 MOL     -0.714448
     48 O8         -3.2210    1.5340   -2.3490 o         1 MOL     -0.714448
     49 H21        -2.9640    3.3480   -1.4740 hn        1 MOL      0.103432
     50 H22        -4.9810    5.0230   -2.6720 h1        1 MOL      0.119692
     51 H23        -3.6030    4.0430   -4.2080 hc        1 MOL      0.092956
     52 H24        -5.1200    2.9560   -4.3480 hc        1 MOL      0.092956
     53 N5         -5.8640    2.6930   -0.6500 n         1 MOL     -0.144669
     54 C17        -6.9700    1.9880   -0.0160 c3        1 MOL     -0.291433
     55 C18        -7.4920    0.7640   -0.6890 c         1 MOL      0.545299
     56 O9         -8.7150    0.5010   -0.7200 o         1 MOL     -0.579415
     57 H25        -5.0670    2.8310   -0.0450 hn        1 MOL      0.220282
     58 H26        -7.8100    2.6940    0.0120 h1        1 MOL      0.119601
     59 H27        -6.6030    1.6340    0.9370 h1        1 MOL      0.119601
     60 N6         -6.5970   -0.0010   -1.3080 n         1 MOL     -0.175566
     61 C19        -6.9250   -1.2130   -2.0340 c3        1 MOL      0.015451
     62 C20        -7.1100   -2.4180   -1.1050 c         1 MOL      0.410290
     63 O10        -7.4840   -3.4950   -1.6070 o         1 MOL     -0.556363
     64 C21        -5.8810   -1.5050   -3.1560 c3        1 MOL     -0.352049
     65 C22        -4.4520   -1.6870   -2.7410 c         1 MOL      0.820952
     66 O11        -3.5420   -1.7980   -3.5870 o         1 MOL     -0.667200
     67 O12        -4.1200   -1.7350   -1.5660 o         1 MOL     -0.667200
     68 H28        -5.6090    0.2340   -1.1980 hn        1 MOL      0.121927
     69 H29        -7.8900   -1.0010   -2.4740 h1        1 MOL      0.106733
     70 H30        -5.9090   -0.6760   -3.8670 hc        1 MOL      0.106224
     71 H31        -6.2240   -2.4140   -3.6490 hc        1 MOL      0.106224
     72 N7         -6.7870   -2.3050    0.1600 n         1 MOL     -0.218197
     73 C23        -6.7620   -3.5060    1.0930 c3        1 MOL     -0.282617
     74 C24        -5.3590   -4.1010    1.3950 c         1 MOL      0.604061
     75 O13        -5.2330   -4.7550    2.4080 o         1 MOL     -0.588092
     76 H32        -6.4150   -1.4510    0.5460 hn        1 MOL      0.251246
     77 H33        -7.4530   -4.3070    0.7990 h1        1 MOL      0.139938
     78 H34        -7.1510   -3.0120    1.9760 h1        1 MOL      0.139938
     79 N8         -4.3170   -3.7870    0.6740 n         1 MOL     -0.193991
     80 C25        -2.9530   -4.3790    0.9140 c3        1 MOL     -0.166050
     81 C26        -1.7890   -3.3950    1.0940 c         1 MOL      0.755123
     82 O14        -1.7690   -2.2670    0.6300 o         1 MOL     -0.683186
     83 C27        -2.4810   -5.3970   -0.1090 c3        1 MOL      0.260964
     84 C28        -3.1850   -6.6950    0.0930 c3        1 MOL     -0.476215
     85 O15        -2.7080   -5.0440   -1.4850 oh        1 MOL     -0.571117
     86 H35        -4.3820   -3.0240    0.0130 hn        1 MOL      0.162757
     87 H36        -3.0650   -4.9740    1.8240 h1        1 MOL      0.095596
     88 H37        -1.4540   -5.6980    0.0530 h1        1 MOL      0.086186
     89 H38        -3.6260   -5.2420   -1.6680 ho        1 MOL      0.407117
     90 H39        -3.2040   -6.9830    1.1530 hc        1 MOL      0.127701
     91 H40        -4.2600   -6.6180   -0.0770 hc        1 MOL      0.127701
     92 H41        -2.7340   -7.4630   -0.5270 hc        1 MOL      0.127701
     93 N9         -0.7670   -3.7660    1.7970 n         1 MOL     -0.555660
     94 C29         0.4790   -2.9560    1.8560 c3        1 MOL      0.257115
     95 C30         1.4900   -3.4200    0.8350 c         1 MOL      0.355929
     96 O16         1.8440   -4.5760    0.9070 o         1 MOL     -0.529604
     97 C31         0.9120   -2.9170    3.3140 c3        1 MOL      0.016686
     98 C32        -0.1090   -2.1080    4.2380 c3        1 MOL     -0.344338
     99 C33         2.3160   -2.3200    3.4380 c3        1 MOL     -0.091547
    100 C34        -0.3930   -0.6410    3.7920 c3        1 MOL      0.102438
    101 H42        -0.7370   -4.6460    2.2880 hn        1 MOL      0.291713
    102 H43         0.2660   -1.9150    1.6350 h1        1 MOL      0.029638
    103 H44         0.9550   -3.9780    3.5680 hc        1 MOL      0.033644
    104 H45         0.3130   -2.0740    5.2450 hc        1 MOL      0.088016
    105 H46        -1.0380   -2.6820    4.2460 hc        1 MOL      0.088016
    106 H47         2.6510   -2.0670    4.4360 hc        1 MOL      0.014549
    107 H48         3.0910   -3.0100    3.0950 hc        1 MOL      0.014549
    108 H49         2.5210   -1.5030    2.7410 hc        1 MOL      0.014549
    109 H50        -1.1010   -0.7270    2.9710 hc        1 MOL      0.037773
    110 H51        -0.7990   -0.0800    4.6310 hc        1 MOL      0.037773
    111 H52         0.5680   -0.1760    3.5940 hc        1 MOL      0.037773
    112 N10         1.9490   -2.5470   -0.1010 n         1 MOL     -0.052785
    113 C35         3.0640   -2.9080   -1.0080 c3        1 MOL     -0.112150
    114 C36         4.4870   -2.6680   -0.3850 c         1 MOL      0.612827
    115 O17         4.5540   -2.2020    0.7140 o         1 MOL     -0.413104
    116 C37         2.9830   -2.1060   -2.2920 c3        1 MOL      0.275491
    117 C38         1.8000   -2.5320   -3.0910 c3        1 MOL     -0.384738
    118 O18         2.8710   -0.6730   -2.0640 oh        1 MOL     -0.656265
    119 H53         1.5960   -1.5990   -0.0640 hn        1 MOL      0.047885
    120 H54         3.1650   -3.9710   -1.2130 h1        1 MOL      0.076950
    121 H55         3.8740   -2.3870   -2.8440 h1        1 MOL      0.021968
    122 H56         2.0280   -0.5880   -1.6110 ho        1 MOL      0.436875
    123 H57         1.0410   -1.7580   -3.1800 hc        1 MOL      0.101999
    124 H58         2.1380   -2.8170   -4.0930 hc        1 MOL      0.101999
    125 H59         1.2450   -3.4060   -2.7370 hc        1 MOL      0.101999
    126 N11         5.6110   -3.0760   -1.0430 n         1 MOL     -0.550357
    127 C39         6.9300   -3.0170   -0.4570 c3        1 MOL     -0.025122
    128 C40         7.2990   -1.5900    0.0390 c         1 MOL      0.142328
    129 O19         7.9450   -1.6650    1.0800 o         1 MOL     -0.442055
    130 C41         7.9510   -3.5360   -1.4590 c3        1 MOL      0.413720
    131 C42         9.4380   -3.5510   -1.0570 c3        1 MOL     -0.510380
    132 O20         7.6250   -4.8880   -1.8090 oh        1 MOL     -0.578969
    133 H60         5.5490   -3.3890   -1.9960 hn        1 MOL      0.263227
    134 H61         6.9770   -3.5920    0.4690 h1        1 MOL      0.153936
    135 H62         7.8540   -2.9810   -2.3900 h1        1 MOL     -0.035007
    136 H63         6.9870   -4.8150   -2.5290 ho        1 MOL      0.371283
    137 H64         9.9820   -3.8960   -1.9390 hc        1 MOL      0.152346
    138 H65         9.7220   -2.5520   -0.6990 hc        1 MOL      0.152346
    139 H66         9.6980   -4.3200   -0.3370 hc        1 MOL      0.152346
    140 N12         6.9350   -0.5400   -0.6630 n         1 MOL     -0.021392
    141 C43         7.2160    0.8820   -0.2920 c3        1 MOL      0.038981
    142 C44         6.1760    1.5700    0.6680 c         1 MOL      0.315454
    143 O21         6.5850    2.3690    1.4850 o         1 MOL     -0.471429
    144 C45         7.6780    1.7010   -1.5290 c3        1 MOL     -0.147630
    145 C46         8.9850    1.1270   -2.2110 c3        1 MOL      0.210906
    146 C47         9.3820    1.8540   -3.5170 c3        1 MOL     -0.149861
    147 C48         9.1400    3.4390   -3.3910 c3        1 MOL      0.074261
    148 N13         9.6350    4.1810   -4.5700 n4        1 MOL     -0.264002
    149 H67         6.4360   -0.7560   -1.5120 hn        1 MOL      0.159285
    150 H68         8.1300    0.7860    0.2990 h1        1 MOL      0.083190
    151 H69         7.8550    2.7150   -1.1760 hc        1 MOL      0.029940
    152 H70         6.8310    1.6640   -2.2260 hc        1 MOL      0.029940
    153 H71         8.8330    0.0860   -2.4700 hc        1 MOL     -0.020961
    154 H72         9.7960    1.0900   -1.4760 hc        1 MOL     -0.020961
    155 H73         8.6870    1.4880   -4.2760 hc        1 MOL      0.048379
    156 H74        10.4140    1.6050   -3.7670 hc        1 MOL      0.048379
    157 H75         9.4070    3.8350   -2.4110 hx        1 MOL      0.073295
    158 H76         8.0570    3.5940   -3.3840 hx        1 MOL      0.073295
    159 H77        10.6310    4.0540   -4.6300 hn        1 MOL      0.254965
    160 H78         9.3090    3.7100   -5.4110 hn        1 MOL      0.254965
    161 H79         9.3820    5.1540   -4.5460 hn        1 MOL      0.254965
    162 N14         4.8890    1.1590    0.6370 n         1 MOL     -0.277665
    163 C49         3.8690    1.4610    1.6530 c3        1 MOL     -0.311756
    164 C50         4.3560    0.8670    2.9980 c         1 MOL      0.566236
    165 O22         4.0390    1.5090    4.0230 o         1 MOL     -0.561411
    166 C51         2.5220    0.8520    1.2100 c3        1 MOL      0.160819
    167 C52         1.8820    1.6190    0.0770 c3        1 MOL      0.133475
    168 C53         0.6090    0.9050   -0.3640 c         1 MOL      0.526584
    169 O23        -0.4870    1.5170   -0.1380 o         1 MOL     -0.622856
    170 O24         0.5690   -0.2820   -0.8200 o         1 MOL     -0.622856
    171 H80         4.6470    0.4730   -0.0720 hn        1 MOL      0.215124
    172 H81         3.7590    2.5270    1.8380 h1        1 MOL      0.142488
    173 H82         1.8240    0.7840    2.0510 hc        1 MOL      0.015588
    174 H83         2.6410   -0.1600    0.8380 hc        1 MOL      0.015588
    175 H84         2.5980    1.8030   -0.7280 hc        1 MOL     -0.041121
    176 H85         1.5910    2.5550    0.5520 hc        1 MOL     -0.041121
    177 N15         5.1010   -0.2300    3.1430 n         1 MOL     -0.186659
    178 C54         5.4680   -0.9240    4.3890 c3        1 MOL     -0.306459
    179 H86         5.2320   -1.9850    4.2970 h1        1 MOL      0.131803
    180 H87         6.5360   -0.8040    4.5730 h1        1 MOL      0.131803
    181 H88         4.9060   -0.4990    5.2210 h1        1 MOL      0.131803
    182 H89         5.1900   -0.7420    2.2720 hn        1 MOL      0.237561
    183 Ca1        -2.0380   -0.3640   -1.2000 Ca        1 MOL      1.755103
    184 O25        -1.2090   -2.8080   -2.3560 oh        1 MOL     -0.891045
    185 H90        -1.7420   -3.5320   -2.0470 ho        1 MOL      0.409261
    186 H91        -0.9090   -3.0840   -3.2300 ho        1 MOL      0.409261
    187 O26        -0.7900    0.3930   -3.4450 oh        1 MOL     -0.891045
    188 H92        -0.1920    0.2280   -4.1640 ho        1 MOL      0.409261
    189 H93        -1.5260    0.8630   -3.8420 ho        1 MOL      0.409261
@<TRIPOS>BOND
     1    1    2 1   
     2    1    4 1   
     3    1    5 1   
     4    1    6 1   
     5    2    3 2   
     6    2    7 1   
     7    7    8 1   
     8    7   15 1   
     9    8    9 1   
    10    8   11 1   
    11    8   16 1   
    12    9   10 2   
    13    9   19 1   
    14   11   12 1   
    15   11   17 1   
    16   11   18 1   
    17   12   13 1   
    18   12   14 1   
    19   19   20 1   
    20   19   28 1   
    21   20   21 1   
    22   20   23 1   
    23   20   29 1   
    24   21   22 2   
    25   21   41 1   
    26   23   24 1   
    27   23   30 1   
    28   23   31 1   
    29   24   25 1   
    30   24   32 1   
    31   24   33 1   
    32   25   26 1   
    33   25   34 1   
    34   25   35 1   
    35   26   27 1   
    36   26   36 1   
    37   26   37 1   
    38   27   38 1   
    39   27   39 1   
    40   27   40 1   
    41   41   42 1   
    42   41   49 1   
    43   42   43 1   
    44   42   45 1   
    45   42   50 1   
    46   43   44 2   
    47   43   53 1   
    48   45   46 1   
    49   45   51 1   
    50   45   52 1   
    51   46   47 1   
    52   46   48 1   
    53   53   54 1   
    54   53   57 1   
    55   54   55 1   
    56   54   58 1   
    57   54   59 1   
    58   55   56 2   
    59   55   60 1   
    60   60   61 1   
    61   60   68 1   
    62   61   62 1   
    63   61   64 1   
    64   61   69 1   
    65   62   63 2   
    66   62   72 1   
    67   64   65 1   
    68   64   70 1   
    69   64   71 1   
    70   65   66 1   
    71   65   67 1   
    72   72   73 1   
    73   72   76 1   
    74   73   74 1   
    75   73   77 1   
    76   73   78 1   
    77   74   75 2   
    78   74   79 1   
    79   79   80 1   
    80   79   86 1   
    81   80   81 1   
    82   80   83 1   
    83   80   87 1   
    84   81   82 2   
    85   81   93 1   
    86   83   84 1   
    87   83   85 1   
    88   83   88 1   
    89   84   90 1   
    90   84   91 1   
    91   84   92 1   
    92   85   89 1   
    93   93   94 1   
    94   93  101 1   
    95   94   95 1   
    96   94   97 1   
    97   94  102 1   
    98   95   96 2   
    99   95  112 1   
   100   97   98 1   
   101   97   99 1   
   102   97  103 1   
   103   98  100 1   
   104   98  104 1   
   105   98  105 1   
   106   99  106 1   
   107   99  107 1   
   108   99  108 1   
   109  100  109 1   
   110  100  110 1   
   111  100  111 1   
   112  112  113 1   
   113  112  119 1   
   114  113  114 1   
   115  113  116 1   
   116  113  120 1   
   117  114  115 2   
   118  114  126 1   
   119  116  117 1   
   120  116  118 1   
   121  116  121 1   
   122  117  123 1   
   123  117  124 1   
   124  117  125 1   
   125  118  122 1   
   126  126  127 1   
   127  126  133 1   
   128  127  128 1   
   129  127  130 1   
   130  127  134 1   
   131  128  129 2   
   132  128  140 1   
   133  130  131 1   
   134  130  132 1   
   135  130  135 1   
   136  131  137 1   
   137  131  138 1   
   138  131  139 1   
   139  132  136 1   
   140  140  141 1   
   141  140  149 1   
   142  141  142 1   
   143  141  144 1   
   144  141  150 1   
   145  142  143 2   
   146  142  162 1   
   147  144  145 1   
   148  144  151 1   
   149  144  152 1   
   150  145  146 1   
   151  145  153 1   
   152  145  154 1   
   153  146  147 1   
   154  146  155 1   
   155  146  156 1   
   156  147  148 1   
   157  147  157 1   
   158  147  158 1   
   159  148  159 1   
   160  148  160 1   
   161  148  161 1   
   162  162  163 1   
   163  162  171 1   
   164  163  164 1   
   165  163  166 1   
   166  163  172 1   
   167  164  165 2   
   168  164  177 1   
   169  166  167 1   
   170  166  173 1   
   171  166  174 1   
   172  167  168 1   
   173  167  175 1   
   174  167  176 1   
   175  168  169 1   
   176  168  170 1   
   177  177  178 1   
   178  177  182 1   
   179  178  179 1   
   180  178  180 1   
   181  178  181 1   
   182  184  185 1   
   183  184  186 1   
   184  187  188 1   
   185  187  189 1   
@<TRIPOS>SUBSTRUCTURE
     1 MOL         1 TEMP              0 ****  ****    0 ROOT
