@<TRIPOS>MOLECULE
MOL
  186   183     1     0     0
SMALL
resp


@<TRIPOS>ATOM
      1 C1          0.6860   -2.7930    5.9740 c3        1 MOL     -0.284203
      2 C2          1.0950   -2.7480    4.5250 c         1 MOL      0.884096
      3 O1          0.3410   -3.1570    3.6480 o         1 MOL     -0.669008
      4 H1          1.1660   -1.9760    6.5120 hc        1 MOL      0.059558
      5 H2         -0.3970   -2.6910    6.0500 hc        1 MOL      0.059558
      6 H3          0.9920   -3.7440    6.4090 hc        1 MOL      0.059558
      7 N1          2.2880   -2.1800    4.2450 n         1 MOL     -0.848874
      8 C3          2.7950   -1.9760    2.8820 c3        1 MOL      0.547242
      9 C4          3.1610   -3.3370    2.2550 c         1 MOL      0.390855
     10 O2          4.0240   -4.0360    2.8590 o         1 MOL     -0.559681
     11 C5          3.9330   -0.9890    2.9480 c3        1 MOL     -0.353353
     12 C6          4.5470   -0.6500    1.6160 c         1 MOL      0.872540
     13 O3          5.5960    0.0810    1.5280 o         1 MOL     -0.714839
     14 O4          3.8270   -0.9750    0.6460 o         1 MOL     -0.714839
     15 H4          2.8320   -1.8940    5.0410 hn        1 MOL      0.357702
     16 H5          2.0500   -1.4460    2.2870 h1        1 MOL     -0.051621
     17 H6          4.6620   -1.5320    3.5550 hc        1 MOL      0.049414
     18 H7          3.7120   -0.0160    3.3920 hc        1 MOL      0.049414
     19 N2          2.5580   -3.6570    1.0850 n         1 MOL     -0.175777
     20 C7          2.5630   -4.9730    0.4760 c3        1 MOL     -0.119567
     21 C8          3.5940   -5.2290   -0.5290 c         1 MOL      0.491508
     22 O5          4.0470   -6.3280   -0.7630 o         1 MOL     -0.581226
     23 C9          1.0630   -5.3240    0.0930 c3        1 MOL      0.174094
     24 C10         0.0920   -5.0420    1.2340 c3        1 MOL      0.137687
     25 C11         0.8910   -6.7650   -0.4220 c3        1 MOL     -0.120407
     26 C12        -1.4050   -5.3640    1.0950 c3        1 MOL     -0.093102
     27 H8          2.0400   -2.8930    0.6540 hn        1 MOL      0.077131
     28 H9          2.8400   -5.6650    1.2710 h1        1 MOL      0.078968
     29 H10         0.7230   -4.6360   -0.6900 hc        1 MOL      0.012427
     30 H11         0.1780   -3.9810    1.4620 hc        1 MOL     -0.028016
     31 H12         0.4370   -5.5710    2.1250 hc        1 MOL     -0.028016
     32 H13         1.2380   -7.4030    0.3960 hc        1 MOL      0.006740
     33 H14        -0.1220   -7.1270   -0.5720 hc        1 MOL      0.006740
     34 H15         1.4690   -6.8990   -1.3290 hc        1 MOL      0.006740
     35 H16        -1.8270   -5.1130    0.1200 hc        1 MOL      0.010781
     36 H17        -1.6420   -6.4170    1.2560 hc        1 MOL      0.010781
     37 H18        -1.9730   -4.8100    1.8390 hc        1 MOL      0.010781
     38 N3          3.9250   -4.1770   -1.2310 n         1 MOL     -0.276605
     39 C13         4.9690   -4.0820   -2.2520 c3        1 MOL      0.160826
     40 C14         6.1490   -3.1550   -1.8560 c         1 MOL      0.454552
     41 O6          7.0590   -2.9080   -2.6140 o         1 MOL     -0.526044
     42 C15         4.2560   -3.7810   -3.5800 c3        1 MOL     -0.338237
     43 C16         3.3930   -2.5080   -3.4560 c         1 MOL      0.852657
     44 O7          3.6620   -1.6110   -2.7210 o         1 MOL     -0.744159
     45 O8          2.3210   -2.4350   -4.0970 o         1 MOL     -0.744159
     46 H19         3.3860   -3.3640   -0.9970 hn        1 MOL      0.221333
     47 H20         5.4970   -5.0270   -2.3780 h1        1 MOL      0.054394
     48 H21         3.6100   -4.6090   -3.8710 hc        1 MOL      0.077640
     49 H22         5.0380   -3.6240   -4.3260 hc        1 MOL      0.077640
     50 N4          6.1010   -2.5980   -0.6460 n         1 MOL     -0.366500
     51 C17         7.3250   -2.0600    0.0810 c3        1 MOL     -0.080089
     52 C18         7.9480   -0.7930   -0.5980 c         1 MOL      0.470916
     53 O9          9.1680   -0.6120   -0.6440 o         1 MOL     -0.571708
     54 H23         5.2440   -2.5340   -0.1170 hn        1 MOL      0.190560
     55 H24         8.1060   -2.8200   -0.0010 h1        1 MOL      0.085535
     56 H25         7.2160   -1.9080    1.1590 h1        1 MOL      0.085535
     57 N5          7.0340    0.1150   -1.0910 n         1 MOL     -0.182785
     58 C19         7.4470    1.4070   -1.5770 c3        1 MOL      0.093870
     59 C20         7.6900    2.4510   -0.4350 c         1 MOL      0.358218
     60 O10         8.4010    3.4550   -0.6710 o         1 MOL     -0.573378
     61 C21         6.5130    2.0750   -2.6180 c3        1 MOL     -0.399813
     62 C22         4.9880    1.9490   -2.3430 c         1 MOL      0.843338
     63 O11         4.1990    2.1200   -3.2890 o         1 MOL     -0.729772
     64 O12         4.5300    1.6050   -1.2380 o         1 MOL     -0.729772
     65 H26         6.0720   -0.1320   -0.9030 hn        1 MOL      0.140134
     66 H27         8.4290    1.2640   -2.0340 h1        1 MOL      0.081076
     67 H28         6.7780    1.5170   -3.5260 hc        1 MOL      0.104034
     68 H29         6.6780    3.1430   -2.7790 hc        1 MOL      0.104034
     69 N6          7.0970    2.1570    0.7120 n         1 MOL     -0.100402
     70 C23         6.8920    3.1520    1.7440 c3        1 MOL     -0.187920
     71 C24         5.4940    3.7790    1.8440 c         1 MOL      0.675139
     72 O13         5.3140    4.5410    2.7370 o         1 MOL     -0.633274
     73 H30         6.5340    1.3200    0.7210 hn        1 MOL      0.146065
     74 H31         7.5520    4.0130    1.6740 h1        1 MOL      0.078742
     75 H32         7.0660    2.6040    2.6810 h1        1 MOL      0.078742
     76 N7          4.5090    3.4820    1.0160 n         1 MOL     -0.314626
     77 C25         3.1650    4.0060    1.1600 c3        1 MOL      0.000704
     78 C26         2.0600    2.9970    1.2540 c         1 MOL      0.743945
     79 O14         2.2260    2.0030    0.6200 o         1 MOL     -0.702493
     80 C27         2.9140    5.0410    0.0040 c3        1 MOL      0.008340
     81 C28         3.7540    6.2900    0.1100 c3        1 MOL     -0.190675
     82 C29         3.2440    7.3790   -0.7950 c         1 MOL      0.638878
     83 N8          3.6230    7.3150   -2.0630 n         1 MOL     -0.797608
     84 O15         2.4970    8.2740   -0.4360 o         1 MOL     -0.576729
     85 H33         4.6770    2.8110    0.2890 hn        1 MOL      0.227054
     86 H34         3.0210    4.5260    2.1120 h1        1 MOL      0.037127
     87 H35         1.8850    5.3770    0.1400 hc        1 MOL      0.026225
     88 H36         2.9500    4.5820   -0.9810 hc        1 MOL      0.026225
     89 H37         4.8230    6.0800    0.0710 hc        1 MOL      0.055681
     90 H38         3.6480    6.7340    1.1020 hc        1 MOL      0.055681
     91 H39         4.0960    6.4700   -2.3580 hn        1 MOL      0.365435
     92 H40         3.4130    8.1220   -2.6360 hn        1 MOL      0.365435
     93 N9          0.9640    3.2470    1.9300 n         1 MOL     -0.586090
     94 C30        -0.2140    2.3390    2.1280 c3        1 MOL      0.077842
     95 C31        -1.3200    2.9610    1.2530 c         1 MOL      0.431155
     96 O16        -2.0230    3.8660    1.6130 o         1 MOL     -0.522311
     97 C32        -0.6020    2.2760    3.6080 c3        1 MOL      0.185572
     98 C33        -1.7920    1.4320    3.9120 c3        1 MOL     -0.210109
     99 C34         0.4780    1.7110    4.4670 c3        1 MOL     -0.210109
    100 H41         0.8290    4.1930    2.2660 hn        1 MOL      0.302721
    101 H42        -0.0380    1.3340    1.7350 h1        1 MOL      0.139860
    102 H43        -0.8630    3.2760    3.9680 hc        1 MOL     -0.011119
    103 H44        -2.6880    1.7820    3.3820 hc        1 MOL      0.041202
    104 H45        -1.6550    0.3770    3.6950 hc        1 MOL      0.041202
    105 H46        -2.1290    1.5790    4.9430 hc        1 MOL      0.041202
    106 H47         1.4530    2.1930    4.3470 hc        1 MOL      0.041202
    107 H48         0.2650    1.7910    5.5270 hc        1 MOL      0.041202
    108 H49         0.5730    0.6330    4.3390 hc        1 MOL      0.041202
    109 N10        -1.5970    2.2920    0.0660 n         1 MOL     -0.328095
    110 C35        -2.8110    2.4680   -0.7550 c3        1 MOL      0.109496
    111 C36        -4.1280    2.0130   -0.0440 c         1 MOL      0.338113
    112 O17        -4.0720    1.1090    0.7870 o         1 MOL     -0.271517
    113 C37        -2.5480    1.7100   -2.1270 c3        1 MOL     -0.562311
    114 C38        -3.7420    1.7820   -3.0330 c         1 MOL      0.715936
    115 N11        -3.8340    2.9060   -3.7220 n         1 MOL     -0.772671
    116 O18        -4.6950    1.0710   -2.9390 o         1 MOL     -0.462551
    117 H50        -0.9530    1.5990   -0.2780 hn        1 MOL      0.268567
    118 H51        -2.9160    3.5390   -0.9040 h1        1 MOL      0.051186
    119 H52        -2.2860    0.6640   -2.0190 hc        1 MOL      0.192442
    120 H53        -1.6220    1.9860   -2.6220 hc        1 MOL      0.192442
    121 H54        -3.0600    3.5390   -3.6470 hn        1 MOL      0.344710
    122 H55        -4.7070    3.3000   -4.0290 hn        1 MOL      0.344710
    123 N12        -5.3250    2.5550   -0.3770 n         1 MOL     -0.401321
    124 C39        -6.6040    2.1090    0.1500 c3        1 MOL      0.098871
    125 C40        -6.7700    0.5860    0.1910 c         1 MOL      0.696970
    126 O19        -7.1190   -0.0070    1.2200 o         1 MOL     -0.582854
    127 C41        -7.7150    2.7450   -0.6340 c3        1 MOL     -0.103148
    128 C42        -9.0800    2.3230   -0.1460 ca        1 MOL     -0.102305
    129 C43        -9.5520    2.6330    1.1270 ca        1 MOL     -0.085249
    130 C44        -9.7760    1.4670   -1.0440 ca        1 MOL     -0.085249
    131 C45       -10.7340    2.0610    1.5360 ca        1 MOL     -0.321447
    132 C46       -10.9570    0.9550   -0.6130 ca        1 MOL     -0.321447
    133 C47       -11.4020    1.1550    0.7120 ca        1 MOL      0.457811
    134 O20       -12.6330    0.7420    1.0090 oh        1 MOL     -0.565130
    135 H56        -5.2480    3.2950   -1.0550 hn        1 MOL      0.234378
    136 H57        -6.6930    2.3590    1.1990 h1        1 MOL      0.028320
    137 H58        -7.6380    2.3990   -1.6700 hc        1 MOL      0.059774
    138 H59        -7.7450    3.8320   -0.6070 hc        1 MOL      0.059774
    139 H60        -9.1710    3.4710    1.6940 ha        1 MOL      0.132414
    140 H61        -9.5490    1.4310   -2.1010 ha        1 MOL      0.132414
    141 H62       -11.2900    2.3120    2.4280 ha        1 MOL      0.145860
    142 H63       -11.5310    0.2720   -1.2170 ha        1 MOL      0.145860
    143 H64       -13.0470    0.2430    0.3000 ho        1 MOL      0.390128
    144 N13        -6.3590   -0.1690   -0.8570 n         1 MOL     -0.234383
    145 C48        -6.4310   -1.6160   -0.8920 c3        1 MOL     -0.239448
    146 C49        -5.4920   -2.3980    0.0070 c         1 MOL      0.487158
    147 O21        -5.8340   -3.4570    0.4320 o         1 MOL     -0.534968
    148 C50        -6.3100   -2.0610   -2.3640 c3        1 MOL      0.188614
    149 C51        -7.3100   -1.3920   -3.3240 c3        1 MOL     -0.359647
    150 C52        -7.3150   -2.1170   -4.6560 c         1 MOL      0.743072
    151 O22        -8.2930   -2.8980   -4.8570 o         1 MOL     -0.750581
    152 O23        -6.4530   -1.9350   -5.5380 o         1 MOL     -0.750581
    153 H65        -6.0250    0.2970   -1.6870 hn        1 MOL      0.103354
    154 H66        -7.4780   -1.8120   -0.6480 h1        1 MOL      0.114142
    155 H67        -6.5150   -3.1390   -2.3600 hc        1 MOL      0.009437
    156 H68        -5.2740   -2.0170   -2.6830 hc        1 MOL      0.009437
    157 H69        -7.0140   -0.3570   -3.4810 hc        1 MOL      0.060904
    158 H70        -8.2850   -1.4120   -2.8450 hc        1 MOL      0.060904
    159 N14        -4.3410   -1.8800    0.2760 n         1 MOL     -0.333726
    160 C53        -3.4210   -2.2600    1.4360 c3        1 MOL     -0.116924
    161 C54        -4.0490   -1.8260    2.8080 c         1 MOL      0.481249
    162 O24        -3.9140   -2.5560    3.7530 o         1 MOL     -0.577419
    163 C55        -2.0310   -1.5940    1.2490 c3        1 MOL      0.048771
    164 C56        -1.4330   -1.8600   -0.1460 c3        1 MOL      0.142272
    165 C57        -0.0320   -1.2420   -0.3580 c         1 MOL      0.572623
    166 O25         0.9580   -1.9740   -0.4990 o         1 MOL     -0.675222
    167 O26        -0.0070   -0.0080   -0.5280 o         1 MOL     -0.675222
    168 H71        -4.1260   -0.9630   -0.0990 hn        1 MOL      0.264212
    169 H72        -3.3870   -3.3530    1.5120 h1        1 MOL      0.142245
    170 H73        -1.4060   -1.9670    2.0570 hc        1 MOL      0.029389
    171 H74        -2.0060   -0.5220    1.3910 hc        1 MOL      0.029389
    172 H75        -2.0990   -1.3880   -0.8680 hc        1 MOL     -0.061233
    173 H76        -1.4250   -2.9330   -0.3280 hc        1 MOL     -0.061233
    174 N15        -4.7960   -0.7500    2.8680 n         1 MOL      0.018274
    175 C58        -5.4100   -0.2660    4.1540 c3        1 MOL     -0.233135
    176 H77        -5.0270    0.7260    4.3880 h1        1 MOL      0.081661
    177 H78        -6.4940   -0.2190    4.0450 h1        1 MOL      0.081661
    178 H79        -5.1550   -0.9540    4.9600 h1        1 MOL      0.081661
    179 H80        -4.8880   -0.1900    2.0300 hn        1 MOL      0.005067
    180 Ca1         2.4790    0.1600   -1.2280 Ca        1 MOL      1.761089
    181 O27         1.3000   -0.1200   -3.6560 oh        1 MOL     -0.918719
    182 H81         0.6290   -0.1430   -4.3480 ho        1 MOL      0.418579
    183 H82         1.7550   -0.9600   -3.7450 ho        1 MOL      0.418579
    184 O28         1.7040    2.4320   -2.5150 oh        1 MOL     -0.918719
    185 H83         1.3110    2.3660   -3.3910 ho        1 MOL      0.418579
    186 H84         2.6460    2.4680   -2.6790 ho        1 MOL      0.418579
@<TRIPOS>BOND
     1    1    2 1   
     2    1    4 1   
     3    1    5 1   
     4    1    6 1   
     5    2    3 2   
     6    2    7 1   
     7    7    8 1   
     8    7   15 1   
     9    8    9 1   
    10    8   11 1   
    11    8   16 1   
    12    9   10 2   
    13    9   19 1   
    14   11   12 1   
    15   11   17 1   
    16   11   18 1   
    17   12   13 1   
    18   12   14 1   
    19   19   20 1   
    20   19   27 1   
    21   20   21 1   
    22   20   23 1   
    23   20   28 1   
    24   21   22 2   
    25   21   38 1   
    26   23   24 1   
    27   23   25 1   
    28   23   29 1   
    29   24   26 1   
    30   24   30 1   
    31   24   31 1   
    32   25   32 1   
    33   25   33 1   
    34   25   34 1   
    35   26   35 1   
    36   26   36 1   
    37   26   37 1   
    38   38   39 1   
    39   38   46 1   
    40   39   40 1   
    41   39   42 1   
    42   39   47 1   
    43   40   41 2   
    44   40   50 1   
    45   42   43 1   
    46   42   48 1   
    47   42   49 1   
    48   43   44 1   
    49   43   45 1   
    50   50   51 1   
    51   50   54 1   
    52   51   52 1   
    53   51   55 1   
    54   51   56 1   
    55   52   53 2   
    56   52   57 1   
    57   57   58 1   
    58   57   65 1   
    59   58   59 1   
    60   58   61 1   
    61   58   66 1   
    62   59   60 2   
    63   59   69 1   
    64   61   62 1   
    65   61   67 1   
    66   61   68 1   
    67   62   63 1   
    68   62   64 1   
    69   69   70 1   
    70   69   73 1   
    71   70   71 1   
    72   70   74 1   
    73   70   75 1   
    74   71   72 2   
    75   71   76 1   
    76   76   77 1   
    77   76   85 1   
    78   77   78 1   
    79   77   80 1   
    80   77   86 1   
    81   78   79 2   
    82   78   93 1   
    83   80   81 1   
    84   80   87 1   
    85   80   88 1   
    86   81   82 1   
    87   81   89 1   
    88   81   90 1   
    89   82   83 1   
    90   82   84 2   
    91   83   91 1   
    92   83   92 1   
    93   93   94 1   
    94   93  100 1   
    95   94   95 1   
    96   94   97 1   
    97   94  101 1   
    98   95   96 2   
    99   95  109 1   
   100   97   98 1   
   101   97   99 1   
   102   97  102 1   
   103   98  103 1   
   104   98  104 1   
   105   98  105 1   
   106   99  106 1   
   107   99  107 1   
   108   99  108 1   
   109  109  110 1   
   110  109  117 1   
   111  110  111 1   
   112  110  113 1   
   113  110  118 1   
   114  111  112 2   
   115  111  123 1   
   116  113  114 1   
   117  113  119 1   
   118  113  120 1   
   119  114  115 1   
   120  114  116 2   
   121  115  121 1   
   122  115  122 1   
   123  123  124 1   
   124  123  135 1   
   125  124  125 1   
   126  124  127 1   
   127  124  136 1   
   128  125  126 2   
   129  125  144 1   
   130  127  128 1   
   131  127  137 1   
   132  127  138 1   
   133  128  129 ar  
   134  128  130 ar  
   135  129  131 ar  
   136  129  139 1   
   137  130  132 ar  
   138  130  140 1   
   139  131  133 ar  
   140  131  141 1   
   141  132  133 ar  
   142  132  142 1   
   143  133  134 1   
   144  134  143 1   
   145  144  145 1   
   146  144  153 1   
   147  145  146 1   
   148  145  148 1   
   149  145  154 1   
   150  146  147 2   
   151  146  159 1   
   152  148  149 1   
   153  148  155 1   
   154  148  156 1   
   155  149  150 1   
   156  149  157 1   
   157  149  158 1   
   158  150  151 1   
   159  150  152 1   
   160  159  160 1   
   161  159  168 1   
   162  160  161 1   
   163  160  163 1   
   164  160  169 1   
   165  161  162 2   
   166  161  174 1   
   167  163  164 1   
   168  163  170 1   
   169  163  171 1   
   170  164  165 1   
   171  164  172 1   
   172  164  173 1   
   173  165  166 1   
   174  165  167 1   
   175  174  175 1   
   176  174  179 1   
   177  175  176 1   
   178  175  177 1   
   179  175  178 1   
   180  181  182 1   
   181  181  183 1   
   182  184  185 1   
   183  184  186 1   
@<TRIPOS>SUBSTRUCTURE
     1 MOL         1 TEMP              0 ****  ****    0 ROOT
