@<TRIPOS>MOLECULE
MOL
  175   173     1     0     0
SMALL
resp


@<TRIPOS>ATOM
      1 C1          0.8500    4.2480    5.2560 c3        1 MOL     -0.265929
      2 C2          0.1220    4.0430    3.8860 c         1 MOL      0.669533
      3 O1          0.7500    4.1260    2.8490 o         1 MOL     -0.505614
      4 H1          1.8810    3.9020    5.1740 hc        1 MOL      0.061245
      5 H2          0.8430    5.3050    5.5180 hc        1 MOL      0.061245
      6 H3          0.3360    3.6780    6.0300 hc        1 MOL      0.061245
      7 N1         -1.1910    3.6770    3.9050 n         1 MOL     -0.660090
      8 C3         -1.9300    3.5540    2.6170 c3        1 MOL      0.046865
      9 C4         -2.0940    4.7870    1.7390 c         1 MOL      0.595867
     10 O2         -2.3100    5.9070    2.2360 o         1 MOL     -0.615389
     11 C5         -3.3220    2.9170    2.9690 c3        1 MOL     -0.233421
     12 C6         -3.9950    2.2860    1.6680 c         1 MOL      0.617579
     13 O3         -5.1680    1.9380    1.8010 o         1 MOL     -0.612047
     14 O4         -3.2970    1.9950    0.6180 o         1 MOL     -0.612047
     15 H4         -1.7030    3.9920    4.7160 hn        1 MOL      0.338346
     16 H5         -1.3330    2.9430    1.9280 h1        1 MOL      0.164031
     17 H6         -3.9330    3.6260    3.5080 hc        1 MOL      0.067106
     18 H7         -3.1160    2.0710    3.6200 hc        1 MOL      0.067106
     19 N2         -2.2070    4.6760    0.4540 n         1 MOL     -0.479035
     20 C7         -2.6350    5.6790   -0.5420 c3        1 MOL      0.285804
     21 C8         -3.6490    5.2160   -1.6090 c         1 MOL      0.483521
     22 O5         -4.1790    6.1190   -2.2250 o         1 MOL     -0.596648
     23 C9         -1.3650    6.2430   -1.1320 c3        1 MOL     -0.332360
     24 H8         -2.0220    3.7270    0.1480 hn        1 MOL      0.243017
     25 H9         -3.1990    6.4140    0.0360 h1        1 MOL      0.024519
     26 H10        -0.7670    6.8210   -0.4220 hc        1 MOL      0.082589
     27 H11        -0.8420    5.3940   -1.5730 hc        1 MOL      0.082589
     28 H12        -1.6850    6.8770   -1.9550 hc        1 MOL      0.082589
     29 N3         -3.9860    3.9660   -1.8070 n         1 MOL     -0.314180
     30 C10        -4.9420    3.4180   -2.7630 c3        1 MOL      0.197867
     31 C11        -6.2110    2.7080   -2.1050 c         1 MOL      0.270430
     32 O6         -7.1900    2.6270   -2.9070 o         1 MOL     -0.541687
     33 C12        -4.2040    2.4060   -3.6670 c3        1 MOL     -0.290489
     34 C13        -3.3490    1.4420   -2.9590 c         1 MOL      0.744580
     35 O7         -3.9150    0.6860   -2.1410 o         1 MOL     -0.693928
     36 O8         -2.1120    1.3690   -3.0750 o         1 MOL     -0.693928
     37 H13        -3.4990    3.2990   -1.2310 hn        1 MOL      0.207257
     38 H14        -5.3570    4.1750   -3.4230 h1        1 MOL      0.064358
     39 H15        -3.6000    2.8900   -4.4410 hc        1 MOL      0.070830
     40 H16        -4.9820    1.8240   -4.1660 hc        1 MOL      0.070830
     41 N4         -6.1540    2.1160   -0.9330 n         1 MOL     -0.064223
     42 C14        -7.2960    1.3920   -0.3950 c3        1 MOL     -0.037778
     43 C15        -7.4470   -0.0280   -0.9100 c         1 MOL      0.498380
     44 O9         -8.5320   -0.5970   -0.8710 o         1 MOL     -0.607477
     45 H17        -5.2430    2.0560   -0.4870 hn        1 MOL      0.020493
     46 H18        -8.2240    1.9330   -0.5530 h1        1 MOL      0.062842
     47 H19        -7.1980    1.2290    0.6740 h1        1 MOL      0.062842
     48 N5         -6.3630   -0.6540   -1.4660 n         1 MOL     -0.187273
     49 C16        -6.3910   -2.0880   -1.9240 c3        1 MOL     -0.148605
     50 C17        -6.3060   -3.1940   -0.8580 c         1 MOL      0.452043
     51 O10        -6.2580   -4.3910   -1.1810 o         1 MOL     -0.543368
     52 C18        -5.3590   -2.2250   -3.0190 c3        1 MOL     -0.264964
     53 C19        -4.0220   -2.7310   -2.5000 c         1 MOL      0.742060
     54 N6         -3.6330   -3.9510   -2.7190 n         1 MOL     -0.774570
     55 O11        -3.3730   -1.9910   -1.8540 o         1 MOL     -0.583512
     56 H20        -5.4570   -0.2200   -1.5060 hn        1 MOL      0.204147
     57 H21        -7.3440   -2.2520   -2.4330 h1        1 MOL      0.146750
     58 H22        -5.2140   -1.2880   -3.5450 hc        1 MOL      0.086186
     59 H23        -5.6710   -3.0090   -3.7070 hc        1 MOL      0.086186
     60 H24        -4.2590   -4.6540   -3.0890 hn        1 MOL      0.346081
     61 H25        -2.9760   -4.1770   -1.9840 hn        1 MOL      0.346081
     62 N7         -6.2470   -2.8230    0.4390 n         1 MOL     -0.159322
     63 C20        -6.2010   -3.7740    1.5280 c3        1 MOL     -0.371841
     64 C21        -4.9010   -4.4690    1.9780 c         1 MOL      0.640229
     65 O12        -4.8070   -5.2910    2.9140 o         1 MOL     -0.603689
     66 H26        -6.2460   -1.8460    0.7150 hn        1 MOL      0.251556
     67 H27        -7.0320   -4.4750    1.3940 h1        1 MOL      0.135227
     68 H28        -6.4290   -3.1260    2.3690 h1        1 MOL      0.135227
     69 N8         -3.8730   -4.2290    1.2070 n         1 MOL     -0.341012
     70 C22        -2.4400   -4.6430    1.5000 c3        1 MOL     -0.118983
     71 C23        -1.4910   -3.4340    1.4820 c         1 MOL      0.751897
     72 O13        -1.7950   -2.4350    0.7380 o         1 MOL     -0.651327
     73 C24        -2.0190   -5.7140    0.5300 c3        1 MOL      0.485519
     74 C25        -2.6650   -7.0210    0.7390 c3        1 MOL     -0.443422
     75 O14        -2.2580   -5.3440   -0.8320 oh        1 MOL     -0.582709
     76 H29        -3.9210   -3.5740    0.4430 hn        1 MOL      0.227686
     77 H30        -2.4670   -5.0260    2.5200 h1        1 MOL      0.082031
     78 H31        -0.9490   -5.8820    0.6590 h1        1 MOL     -0.020854
     79 H32        -2.8560   -6.0230   -1.1390 ho        1 MOL      0.373753
     80 H33        -3.7300   -6.8670    0.8990 hc        1 MOL      0.107593
     81 H34        -2.5620   -7.5860   -0.1860 hc        1 MOL      0.107593
     82 H35        -2.2110   -7.5630    1.5700 hc        1 MOL      0.107593
     83 N9         -0.3850   -3.5510    2.1890 n         1 MOL     -0.648411
     84 C26         0.8080   -2.7080    2.0190 c3        1 MOL     -0.034885
     85 C27         1.5330   -3.0400    0.6770 c         1 MOL      0.804527
     86 O15         1.7570   -4.1930    0.2360 o         1 MOL     -0.641567
     87 C28         1.7210   -2.8770    3.2620 c3        1 MOL      0.118750
     88 C29         1.2380   -1.8690    4.3070 c3        1 MOL      0.334059
     89 C30         3.2450   -2.7820    3.0110 c3        1 MOL     -0.169259
     90 C31         1.7430   -2.0540    5.7320 c3        1 MOL     -0.299145
     91 H36        -0.3140   -4.3390    2.8210 hn        1 MOL      0.309510
     92 H37         0.5390   -1.6600    1.9490 h1        1 MOL     -0.105908
     93 H38         1.5640   -3.8630    3.6820 hc        1 MOL     -0.010036
     94 H39         0.1470   -1.8620    4.3890 hc        1 MOL     -0.052679
     95 H40         1.5130   -0.8590    4.0020 hc        1 MOL     -0.052679
     96 H41         3.4330   -1.7450    2.7540 hc        1 MOL      0.018090
     97 H42         3.6200   -3.1800    3.9590 hc        1 MOL      0.018090
     98 H43         3.5250   -3.3520    2.1340 hc        1 MOL      0.018090
     99 H44         1.4820   -1.2120    6.3690 hc        1 MOL      0.052867
    100 H45         1.2040   -2.9080    6.1350 hc        1 MOL      0.052867
    101 H46         2.8250   -2.1320    5.6610 hc        1 MOL      0.052867
    102 N10         2.0360   -1.9980    0.1070 n         1 MOL     -0.507230
    103 C32         2.8500   -1.9660   -1.1040 c3        1 MOL      0.228258
    104 C33         4.3070   -1.5210   -0.8190 c         1 MOL      0.171424
    105 O16         4.4410   -0.9050    0.2190 o         1 MOL     -0.072580
    106 C34         2.2100   -1.1140   -2.2560 c3        1 MOL     -0.362978
    107 C35         0.7360   -1.3390   -2.6760 c         1 MOL      0.784389
    108 O17        -0.2740   -0.9130   -2.0680 o         1 MOL     -0.699359
    109 O18         0.5390   -2.0240   -3.7530 o         1 MOL     -0.699359
    110 H47         1.8530   -1.1120    0.5560 hn        1 MOL      0.308856
    111 H48         2.9500   -2.9670   -1.5300 h1        1 MOL      0.055689
    112 H49         2.8530   -1.2500   -3.1340 hc        1 MOL      0.066059
    113 H50         2.4310   -0.0790   -2.0090 hc        1 MOL      0.066059
    114 N11         5.2670   -1.7770   -1.6770 n         1 MOL     -0.451447
    115 C36         6.6330   -1.3170   -1.4200 c3        1 MOL      0.269270
    116 C37         6.7280    0.2080   -1.1820 c         1 MOL      0.209722
    117 O19         7.3720    0.6110   -0.1600 o         1 MOL     -0.501796
    118 C38         7.4930   -1.7650   -2.6470 c3        1 MOL     -0.378406
    119 C39         8.9950   -1.7070   -2.1850 ca        1 MOL      0.307554
    120 C40         9.4150   -2.5100   -1.1400 ca        1 MOL     -0.291612
    121 C41         9.9500   -1.0100   -2.9710 ca        1 MOL     -0.291612
    122 C42        10.7240   -2.3490   -0.7230 ca        1 MOL     -0.047139
    123 C43        11.3020   -1.0210   -2.6250 ca        1 MOL     -0.047139
    124 C44        11.7220   -1.6620   -1.4650 ca        1 MOL     -0.151893
    125 H51         5.1360   -2.2300   -2.5660 hn        1 MOL      0.319755
    126 H52         6.8670   -1.8130   -0.4750 h1        1 MOL      0.080542
    127 H53         7.3960   -1.1100   -3.5090 hc        1 MOL      0.110323
    128 H54         7.3540   -2.8110   -2.8950 hc        1 MOL      0.110323
    129 H55         8.7020   -3.0780   -0.5520 ha        1 MOL      0.148558
    130 H56         9.5350   -0.4450   -3.8030 ha        1 MOL      0.148558
    131 H57        10.9830   -2.9110    0.1650 ha        1 MOL      0.095261
    132 H58        12.0550   -0.4850   -3.1870 ha        1 MOL      0.095261
    133 H59        12.7620   -1.7170   -1.1760 ha        1 MOL      0.109411
    134 N12         6.1460    1.1750   -1.9110 n         1 MOL      0.120781
    135 C45         6.2210    2.6140   -1.5270 c3        1 MOL     -0.232396
    136 C46         5.6280    2.9630   -0.1130 c         1 MOL      0.431256
    137 O20         5.9080    3.9920    0.5410 o         1 MOL     -0.532138
    138 C47         5.3610    3.2910   -2.5830 c3        1 MOL      0.038685
    139 C48         5.3230    2.3880   -3.7720 c3        1 MOL      0.159094
    140 C49         5.3510    0.9970   -3.1280 c3        1 MOL     -0.200369
    141 H60         7.2680    2.8970   -1.5810 h1        1 MOL      0.119117
    142 H61         4.3630    3.5630   -2.2380 hc        1 MOL      0.022675
    143 H62         5.7460    4.2640   -2.8690 hc        1 MOL      0.022675
    144 H63         4.6160    2.7330   -4.5210 hc        1 MOL     -0.022875
    145 H64         6.3110    2.4150   -4.2260 hc        1 MOL     -0.022875
    146 H65         4.3760    0.6080   -2.8290 h1        1 MOL      0.066605
    147 H66         5.8690    0.3260   -3.8120 h1        1 MOL      0.066605
    148 N13         4.7040    2.1320    0.3750 n         1 MOL     -0.057852
    149 C50         4.0730    2.1780    1.7170 c3        1 MOL     -0.053355
    150 C51         4.8680    1.4300    2.8280 c         1 MOL      0.431369
    151 O21         5.0740    1.9240    3.9020 o         1 MOL     -0.549014
    152 C52         2.7060    1.6320    1.5840 c3        1 MOL     -0.128383
    153 C53         1.7310    2.0870    0.4380 c3        1 MOL     -0.152170
    154 C54         0.2890    1.4950    0.4680 c         1 MOL      0.560091
    155 O22         0.0650    0.4230    1.0390 o         1 MOL     -0.631421
    156 O23        -0.5980    2.1380   -0.1050 o         1 MOL     -0.631421
    157 H67         4.5880    1.2020   -0.0120 hn        1 MOL      0.040003
    158 H68         3.9940    3.2410    1.9290 h1        1 MOL      0.113887
    159 H69         2.1950    1.8120    2.5320 hc        1 MOL      0.066896
    160 H70         2.7500    0.5470    1.5340 hc        1 MOL      0.066896
    161 H71         2.0950    1.7710   -0.5420 hc        1 MOL      0.065490
    162 H72         1.5800    3.1730    0.4570 hc        1 MOL      0.065490
    163 N14         5.5310    0.3170    2.5210 n         1 MOL      0.089509
    164 C55         6.6260   -0.2450    3.2680 c3        1 MOL     -0.309037
    165 H73         6.4230   -0.1500    4.3350 h1        1 MOL      0.099499
    166 H74         6.7390   -1.2980    3.0110 h1        1 MOL      0.099499
    167 H75         7.5440    0.2890    3.0240 h1        1 MOL      0.099499
    168 H76         5.1450   -0.1090    1.6870 hn        1 MOL     -0.096048
    169 Ca1        -2.1450   -0.0650   -0.4870 Ca        1 MOL      1.668818
    170 O24        -4.4230   -0.5180    0.9300 oh        1 MOL     -0.698417
    171 H77        -4.1080   -0.8380    1.7800 ho        1 MOL      0.346164
    172 H78        -4.4830    0.4350    1.0460 ho        1 MOL      0.346164
    173 O25        -1.9020   -0.1650    2.6190 oh        1 MOL     -0.698417
    174 H79        -1.7360   -0.0620    3.5600 ho        1 MOL      0.346164
    175 H80        -1.0730    0.0840    2.2070 ho        1 MOL      0.346164
@<TRIPOS>BOND
     1    1    2 1   
     2    1    4 1   
     3    1    5 1   
     4    1    6 1   
     5    2    3 2   
     6    2    7 1   
     7    7    8 1   
     8    7   15 1   
     9    8    9 1   
    10    8   11 1   
    11    8   16 1   
    12    9   10 2   
    13    9   19 1   
    14   11   12 1   
    15   11   17 1   
    16   11   18 1   
    17   12   13 1   
    18   12   14 1   
    19   19   20 1   
    20   19   24 1   
    21   20   21 1   
    22   20   23 1   
    23   20   25 1   
    24   21   22 2   
    25   21   29 1   
    26   23   26 1   
    27   23   27 1   
    28   23   28 1   
    29   29   30 1   
    30   29   37 1   
    31   30   31 1   
    32   30   33 1   
    33   30   38 1   
    34   31   32 2   
    35   31   41 1   
    36   33   34 1   
    37   33   39 1   
    38   33   40 1   
    39   34   35 1   
    40   34   36 1   
    41   41   42 1   
    42   41   45 1   
    43   42   43 1   
    44   42   46 1   
    45   42   47 1   
    46   43   44 2   
    47   43   48 1   
    48   48   49 1   
    49   48   56 1   
    50   49   50 1   
    51   49   52 1   
    52   49   57 1   
    53   50   51 2   
    54   50   62 1   
    55   52   53 1   
    56   52   58 1   
    57   52   59 1   
    58   53   54 1   
    59   53   55 2   
    60   54   60 1   
    61   54   61 1   
    62   62   63 1   
    63   62   66 1   
    64   63   64 1   
    65   63   67 1   
    66   63   68 1   
    67   64   65 2   
    68   64   69 1   
    69   69   70 1   
    70   69   76 1   
    71   70   71 1   
    72   70   73 1   
    73   70   77 1   
    74   71   72 2   
    75   71   83 1   
    76   73   74 1   
    77   73   75 1   
    78   73   78 1   
    79   74   80 1   
    80   74   81 1   
    81   74   82 1   
    82   75   79 1   
    83   83   84 1   
    84   83   91 1   
    85   84   85 1   
    86   84   87 1   
    87   84   92 1   
    88   85   86 2   
    89   85  102 1   
    90   87   88 1   
    91   87   89 1   
    92   87   93 1   
    93   88   90 1   
    94   88   94 1   
    95   88   95 1   
    96   89   96 1   
    97   89   97 1   
    98   89   98 1   
    99   90   99 1   
   100   90  100 1   
   101   90  101 1   
   102  102  103 1   
   103  102  110 1   
   104  103  104 1   
   105  103  106 1   
   106  103  111 1   
   107  104  105 2   
   108  104  114 1   
   109  106  107 1   
   110  106  112 1   
   111  106  113 1   
   112  107  108 1   
   113  107  109 1   
   114  114  115 1   
   115  114  125 1   
   116  115  116 1   
   117  115  118 1   
   118  115  126 1   
   119  116  117 2   
   120  116  134 1   
   121  118  119 1   
   122  118  127 1   
   123  118  128 1   
   124  119  120 ar  
   125  119  121 ar  
   126  120  122 ar  
   127  120  129 1   
   128  121  123 ar  
   129  121  130 1   
   130  122  124 ar  
   131  122  131 1   
   132  123  124 ar  
   133  123  132 1   
   134  124  133 1   
   135  134  135 1   
   136  134  140 1   
   137  135  136 1   
   138  135  138 1   
   139  135  141 1   
   140  136  137 2   
   141  136  148 1   
   142  138  139 1   
   143  138  142 1   
   144  138  143 1   
   145  139  140 1   
   146  139  144 1   
   147  139  145 1   
   148  140  146 1   
   149  140  147 1   
   150  148  149 1   
   151  148  157 1   
   152  149  150 1   
   153  149  152 1   
   154  149  158 1   
   155  150  151 2   
   156  150  163 1   
   157  152  153 1   
   158  152  159 1   
   159  152  160 1   
   160  153  154 1   
   161  153  161 1   
   162  153  162 1   
   163  154  155 1   
   164  154  156 1   
   165  163  164 1   
   166  163  168 1   
   167  164  165 1   
   168  164  166 1   
   169  164  167 1   
   170  170  171 1   
   171  170  172 1   
   172  173  174 1   
   173  173  175 1   
@<TRIPOS>SUBSTRUCTURE
     1 MOL         1 TEMP              0 ****  ****    0 ROOT
