@<TRIPOS>MOLECULE
MOL
  189   185     1     0     0
SMALL
resp


@<TRIPOS>ATOM
      1 C1         -0.9410    4.7840    5.6210 c3        1 MOL     -0.345655
      2 C2         -1.3610    4.0190    4.3530 c         1 MOL      0.699505
      3 O1         -1.2420    2.7670    4.3250 o         1 MOL     -0.593452
      4 H1          0.1210    4.6200    5.8090 hc        1 MOL      0.086936
      5 H2         -1.1240    5.8490    5.4800 hc        1 MOL      0.086936
      6 H3         -1.5190    4.4250    6.4710 hc        1 MOL      0.086936
      7 N1         -1.9810    4.7550    3.4160 n         1 MOL     -0.646930
      8 C3         -2.4510    4.1740    2.1200 c3        1 MOL      0.413927
      9 C4         -2.4060    5.2040    0.9370 c         1 MOL      0.275321
     10 O2         -2.8760    6.3630    1.0180 o         1 MOL     -0.534794
     11 C5         -3.8330    3.5850    2.3740 c3        1 MOL     -0.370735
     12 C6         -4.4990    3.1260    1.1540 c         1 MOL      0.660831
     13 O3         -5.5720    3.7390    0.8150 o         1 MOL     -0.624436
     14 O4         -3.9840    2.1600    0.4930 o         1 MOL     -0.624436
     15 H4         -2.0180    5.7480    3.6020 hn        1 MOL      0.326885
     16 H5         -1.7160    3.3950    1.9210 h1        1 MOL     -0.020998
     17 H6         -4.4370    4.4480    2.6640 hc        1 MOL      0.083668
     18 H7         -3.8490    2.7450    3.0660 hc        1 MOL      0.083668
     19 N2         -1.8270    4.6740   -0.1190 n         1 MOL      0.047761
     20 C7         -1.8190    5.4720   -1.4350 c3        1 MOL     -0.119548
     21 C8         -2.7170    4.9660   -2.5620 c         1 MOL      0.628381
     22 O5         -2.7680    5.6080   -3.6150 o         1 MOL     -0.597047
     23 C9         -0.3820    5.6380   -2.0170 c3        1 MOL      0.042571
     24 C10         0.2850    4.2950   -2.4450 c3        1 MOL      0.319168
     25 C11         0.4240    6.2870   -0.8940 c3        1 MOL     -0.124184
     26 C12         1.7350    4.3950   -2.9610 c3        1 MOL     -0.321014
     27 H8         -1.2880    3.8300   -0.0300 hn        1 MOL      0.022885
     28 H9         -2.2460    6.4690   -1.3320 h1        1 MOL      0.083237
     29 H10        -0.3640    6.2440   -2.9290 hc        1 MOL      0.003452
     30 H11        -0.3020    3.9830   -3.3080 hc        1 MOL     -0.049955
     31 H12         0.1700    3.4720   -1.7490 hc        1 MOL     -0.049955
     32 H13         0.8210    5.5460   -0.2040 hc        1 MOL      0.010979
     33 H14         1.2650    6.8770   -1.2620 hc        1 MOL      0.010979
     34 H15        -0.1620    7.0050   -0.3190 hc        1 MOL      0.010979
     35 H16         2.1010    3.3930   -3.2050 hc        1 MOL      0.059471
     36 H17         1.6870    5.0290   -3.8440 hc        1 MOL      0.059471
     37 H18         2.4290    4.8600   -2.2670 hc        1 MOL      0.059471
     38 N3         -3.4110    3.8220   -2.4010 n         1 MOL     -0.595358
     39 C13        -4.0450    3.0890   -3.5710 c3        1 MOL      0.086746
     40 C14        -5.3440    2.3370   -3.1470 c         1 MOL      0.410339
     41 O6         -6.0350    1.8840   -4.0170 o         1 MOL     -0.565179
     42 C15        -3.0970    2.1830   -4.3760 c3        1 MOL     -0.188273
     43 C16        -2.4180    1.1320   -3.4660 c         1 MOL      0.698507
     44 O7         -2.7050    0.9020   -2.2390 o         1 MOL     -0.707893
     45 O8         -1.5160    0.4330   -4.0660 o         1 MOL     -0.707893
     46 H19        -3.4000    3.2290   -1.5920 hn        1 MOL      0.385134
     47 H20        -4.4070    3.8410   -4.2670 h1        1 MOL      0.082763
     48 H21        -2.4370    2.9600   -4.7490 hc        1 MOL      0.065055
     49 H22        -3.5360    1.8720   -5.3220 hc        1 MOL      0.065055
     50 N4         -5.6410    2.2060   -1.8390 n         1 MOL     -0.095596
     51 C17        -7.0020    1.8400   -1.3180 c3        1 MOL     -0.040548
     52 C18        -7.4410    0.3430   -1.3960 c         1 MOL      0.495993
     53 O9         -8.6290    0.0130   -1.3600 o         1 MOL     -0.612000
     54 H23        -4.9300    2.3410   -1.1290 hn        1 MOL     -0.035356
     55 H24        -7.7380    2.5170   -1.7570 h1        1 MOL      0.059837
     56 H25        -7.0600    2.1570   -0.2680 h1        1 MOL      0.059837
     57 N5         -6.4680   -0.5880   -1.3540 n         1 MOL     -0.317604
     58 C19        -6.6430   -2.0040   -1.6870 c3        1 MOL     -0.022037
     59 C20        -6.6170   -2.9950   -0.5330 c         1 MOL      0.420281
     60 O10        -6.5560   -4.1740   -0.8540 o         1 MOL     -0.492652
     61 C21        -5.6670   -2.3960   -2.7680 c3        1 MOL     -0.199490
     62 C22        -4.2110   -2.2640   -2.2200 c         1 MOL      0.708999
     63 O11        -3.9470   -1.6410   -1.1670 o         1 MOL     -0.661885
     64 O12        -3.2850   -2.7700   -2.9100 o         1 MOL     -0.661885
     65 H26        -5.5190   -0.2360   -1.3080 hn        1 MOL      0.249412
     66 H27        -7.6090   -2.1310   -2.1700 h1        1 MOL      0.123022
     67 H28        -5.7000   -1.7900   -3.6850 hc        1 MOL      0.070861
     68 H29        -5.8970   -3.3690   -3.2110 hc        1 MOL      0.070861
     69 N6         -6.9180   -2.5220    0.6470 n         1 MOL     -0.341946
     70 C23        -7.1050   -3.3400    1.8150 c3        1 MOL     -0.083206
     71 C24        -5.7680   -3.9820    2.3100 c         1 MOL      0.367435
     72 O13        -5.7920   -4.7640    3.3090 o         1 MOL     -0.589355
     73 H30        -6.8960   -1.5250    0.8010 hn        1 MOL      0.279749
     74 H31        -7.9090   -4.0650    1.7180 h1        1 MOL      0.097974
     75 H32        -7.3880   -2.7470    2.6830 h1        1 MOL      0.097974
     76 N7         -4.6220   -3.8410    1.6970 n         1 MOL     -0.126288
     77 C25        -3.3540   -4.5190    1.8370 c3        1 MOL      0.277698
     78 C26        -2.2040   -3.4490    1.8130 c         1 MOL      0.039253
     79 O14        -2.3260   -2.3100    1.2890 o         1 MOL     -0.287933
     80 C27        -3.0710   -5.5950    0.7960 c3        1 MOL     -0.177494
     81 C28        -3.0330   -4.9300   -0.5550 c3        1 MOL     -0.080269
     82 C29        -2.9740   -5.9020   -1.6970 c         1 MOL      0.712251
     83 N8         -2.9440   -5.5300   -2.9420 n         1 MOL     -0.817030
     84 O15        -2.9670   -7.0700   -1.5220 o         1 MOL     -0.636708
     85 H33        -4.7350   -3.2730    0.8620 hn        1 MOL      0.166931
     86 H34        -3.3740   -4.8750    2.8690 h1        1 MOL     -0.005343
     87 H35        -3.7750   -6.4100    0.9470 hc        1 MOL      0.059693
     88 H36        -2.0980   -6.0660    0.9510 hc        1 MOL      0.059693
     89 H37        -2.2120   -4.2220   -0.6680 hc        1 MOL      0.043517
     90 H38        -3.8970   -4.2730   -0.7010 hc        1 MOL      0.043517
     91 H39        -2.9540   -4.5420   -3.1360 hn        1 MOL      0.351362
     92 H40        -2.9000   -6.2010   -3.6970 hn        1 MOL      0.351362
     93 N9         -0.9970   -3.8710    2.3120 n         1 MOL     -0.072854
     94 C30         0.1390   -2.9810    2.4120 c3        1 MOL     -0.103561
     95 C31         1.2040   -3.3250    1.3740 c         1 MOL      0.578470
     96 O16         1.6030   -4.4440    1.1990 o         1 MOL     -0.584688
     97 C32         0.7050   -2.7750    3.8100 c3        1 MOL      0.217588
     98 C33        -0.3540   -1.9840    4.6180 c3        1 MOL     -0.391367
     99 C34         0.9640   -4.1290    4.5590 c3        1 MOL     -0.391367
    100 H41        -0.8960   -4.8300    2.6310 hn        1 MOL      0.190899
    101 H42        -0.2020   -1.9900    2.1170 h1        1 MOL      0.057288
    102 H43         1.6110   -2.1830    3.6810 hc        1 MOL      0.025678
    103 H44        -1.3620   -2.3980    4.6130 hc        1 MOL      0.091769
    104 H45        -0.0210   -1.7580    5.6360 hc        1 MOL      0.091769
    105 H46        -0.3600   -0.9830    4.1870 hc        1 MOL      0.091769
    106 H47         1.1930   -4.0560    5.6260 hc        1 MOL      0.091769
    107 H48         0.0950   -4.7830    4.6410 hc        1 MOL      0.091769
    108 H49         1.8580   -4.5920    4.1410 hc        1 MOL      0.091769
    109 N10         1.5680   -2.2780    0.5870 n         1 MOL     -0.401323
    110 C35         2.7720   -2.4010   -0.1910 c3        1 MOL      0.242247
    111 C36         3.9780   -2.0060    0.6680 c         1 MOL     -0.022865
    112 O17         3.8290   -1.2470    1.6180 o         1 MOL     -0.225110
    113 C37         2.5290   -1.6560   -1.4680 c3        1 MOL     -0.358630
    114 C38         3.7750   -1.5650   -2.3820 c         1 MOL      0.782812
    115 N11         3.9510   -2.3340   -3.4350 n         1 MOL     -0.760125
    116 O18         4.6820   -0.7670   -2.1520 o         1 MOL     -0.644159
    117 H50         1.0820   -1.4110    0.7960 hn        1 MOL      0.278620
    118 H51         2.9570   -3.3830   -0.6070 h1        1 MOL      0.026099
    119 H52         2.2880   -0.6300   -1.2070 hc        1 MOL      0.132531
    120 H53         1.7430   -2.1450   -2.0380 hc        1 MOL      0.132531
    121 H54         3.2650   -2.9710   -3.7780 hn        1 MOL      0.336014
    122 H55         4.8590   -2.3480   -3.8730 hn        1 MOL      0.336014
    123 N12         5.1610   -2.2980    0.2140 n         1 MOL      0.225396
    124 C39         6.3620   -2.0060    1.0220 c3        1 MOL     -0.272981
    125 C40         6.7870   -0.4860    0.9430 c         1 MOL      0.724392
    126 O19         7.6120   -0.0310    1.7170 o         1 MOL     -0.659501
    127 C41         7.5780   -2.8330    0.6440 c3        1 MOL      0.135548
    128 C42         7.9410   -2.8080   -0.8630 ca        1 MOL     -0.159682
    129 C43         7.4930   -3.8200   -1.7220 ca        1 MOL     -0.005407
    130 C44         8.6700   -1.7330   -1.4340 ca        1 MOL     -0.005407
    131 C45         7.7530   -3.8060   -3.0920 ca        1 MOL     -0.309767
    132 C46         8.8190   -1.6400   -2.8530 ca        1 MOL     -0.309767
    133 C47         8.2600   -2.6460   -3.6810 ca        1 MOL      0.362463
    134 O20         8.4820   -2.5650   -5.0180 oh        1 MOL     -0.422252
    135 H56         5.2990   -2.8700   -0.6010 hn        1 MOL     -0.003220
    136 H57         6.0630   -2.2490    2.0410 h1        1 MOL      0.106184
    137 H58         7.2980   -3.8820    0.7870 hc        1 MOL     -0.022977
    138 H59         8.4260   -2.5930    1.2790 hc        1 MOL     -0.022977
    139 H60         7.0170   -4.6840   -1.2920 ha        1 MOL      0.087727
    140 H61         8.9180   -0.8580   -0.8630 ha        1 MOL      0.087727
    141 H62         7.4250   -4.6450   -3.6920 ha        1 MOL      0.116697
    142 H63         9.2460   -0.7530   -3.2870 ha        1 MOL      0.116697
    143 H64         8.2440   -3.4170   -5.3790 ho        1 MOL      0.296497
    144 N13         6.1120    0.3160    0.1160 n         1 MOL      0.371005
    145 C48         6.1880    1.7650    0.1210 c3        1 MOL     -0.564780
    146 C49         5.2030    2.4920    1.1200 c         1 MOL      0.577721
    147 O21         5.4270    3.6910    1.4480 o         1 MOL     -0.518043
    148 C50         5.9520    2.3990   -1.2940 c3        1 MOL     -0.027416
    149 C51         7.0000    1.7990   -2.2120 c3        1 MOL     -0.044187
    150 C52         8.4250    2.2210   -1.8440 c         1 MOL      0.490909
    151 O22         8.6430    3.2080   -1.1250 o         1 MOL     -0.633438
    152 O23         9.3610    1.4910   -2.1340 o         1 MOL     -0.633438
    153 H65         5.6150   -0.1450   -0.6400 hn        1 MOL      0.007723
    154 H66         7.1720    2.0490    0.4860 h1        1 MOL      0.197585
    155 H67         6.0210    3.4770   -1.1510 hc        1 MOL      0.041328
    156 H68         4.9160    2.2710   -1.5850 hc        1 MOL      0.041328
    157 H69         6.8190    1.9010   -3.2790 hc        1 MOL      0.024401
    158 H70         6.9260    0.7120   -2.1020 hc        1 MOL      0.024401
    159 N14         4.1850    1.7540    1.4810 n         1 MOL     -0.401181
    160 C53         3.3450    2.1450    2.6220 c3        1 MOL     -0.071456
    161 C54         3.9090    1.6740    3.9270 c         1 MOL      0.470447
    162 O24         3.8330    2.3570    4.9510 o         1 MOL     -0.551960
    163 C55         1.9860    1.6170    2.3770 c3        1 MOL      0.035485
    164 C56         1.4180    2.2580    1.1110 c3        1 MOL      0.010835
    165 C57         0.2000    1.5220    0.6040 c         1 MOL      0.798125
    166 O25        -0.7470    2.1180    0.0410 o         1 MOL     -0.773060
    167 O26         0.0490    0.2850    0.7770 o         1 MOL     -0.773060
    168 H71         4.0870    0.7880    1.2220 hn        1 MOL      0.189175
    169 H72         3.2820    3.2320    2.7750 h1        1 MOL      0.072773
    170 H73         1.3630    1.9200    3.2190 hc        1 MOL      0.016003
    171 H74         1.9960    0.5340    2.2960 hc        1 MOL      0.016003
    172 H75         2.0930    2.3630    0.2620 hc        1 MOL      0.030313
    173 H76         1.1210    3.2770    1.3270 hc        1 MOL      0.030313
    174 N15         4.5220    0.4770    3.9830 n         1 MOL     -0.036863
    175 C58         4.8570   -0.1290    5.2370 c3        1 MOL     -0.206114
    176 H77         5.5360    0.5250    5.7860 h1        1 MOL      0.075780
    177 H78         3.9500   -0.2810    5.8210 h1        1 MOL      0.075780
    178 H79         5.3420   -1.0880    5.0610 h1        1 MOL      0.075780
    179 H80         4.5860   -0.0820    3.1470 hn        1 MOL     -0.051156
    180 Ca1        -2.5010    0.0620    0.1490 Ca        1 MOL      1.709834
    181 O27        -2.2460    0.5260    2.7690 oh        1 MOL     -0.846890
    182 O28        -1.1030   -1.6400   -1.4330 oh        1 MOL     -0.846890
    183 H81        -1.9330    1.2460    3.3270 ho        1 MOL      0.392477
    184 H82        -0.6050   -1.0230   -1.9750 ho        1 MOL      0.392477
    185 H83        -2.6700   -0.0760    3.3810 ho        1 MOL      0.392477
    186 H84        -1.7740   -1.9960   -2.0210 ho        1 MOL      0.392477
    187 O29        -4.6440   -0.5830    1.8300 oh        1 MOL     -0.846890
    188 H85        -4.4680   -0.9510    2.6970 ho        1 MOL      0.392477
    189 H86        -5.4500   -0.0840    1.9400 ho        1 MOL      0.392477
@<TRIPOS>BOND
     1    1    2 1   
     2    1    4 1   
     3    1    5 1   
     4    1    6 1   
     5    2    3 2   
     6    2    7 1   
     7    7    8 1   
     8    7   15 1   
     9    8    9 1   
    10    8   11 1   
    11    8   16 1   
    12    9   10 2   
    13    9   19 1   
    14   11   12 1   
    15   11   17 1   
    16   11   18 1   
    17   12   13 1   
    18   12   14 1   
    19   19   20 1   
    20   19   27 1   
    21   20   21 1   
    22   20   23 1   
    23   20   28 1   
    24   21   22 2   
    25   21   38 1   
    26   23   24 1   
    27   23   25 1   
    28   23   29 1   
    29   24   26 1   
    30   24   30 1   
    31   24   31 1   
    32   25   32 1   
    33   25   33 1   
    34   25   34 1   
    35   26   35 1   
    36   26   36 1   
    37   26   37 1   
    38   38   39 1   
    39   38   46 1   
    40   39   40 1   
    41   39   42 1   
    42   39   47 1   
    43   40   41 2   
    44   40   50 1   
    45   42   43 1   
    46   42   48 1   
    47   42   49 1   
    48   43   44 1   
    49   43   45 1   
    50   50   51 1   
    51   50   54 1   
    52   51   52 1   
    53   51   55 1   
    54   51   56 1   
    55   52   53 2   
    56   52   57 1   
    57   57   58 1   
    58   57   65 1   
    59   58   59 1   
    60   58   61 1   
    61   58   66 1   
    62   59   60 2   
    63   59   69 1   
    64   61   62 1   
    65   61   67 1   
    66   61   68 1   
    67   62   63 1   
    68   62   64 1   
    69   69   70 1   
    70   69   73 1   
    71   70   71 1   
    72   70   74 1   
    73   70   75 1   
    74   71   72 2   
    75   71   76 1   
    76   76   77 1   
    77   76   85 1   
    78   77   78 1   
    79   77   80 1   
    80   77   86 1   
    81   78   79 2   
    82   78   93 1   
    83   80   81 1   
    84   80   87 1   
    85   80   88 1   
    86   81   82 1   
    87   81   89 1   
    88   81   90 1   
    89   82   83 1   
    90   82   84 2   
    91   83   91 1   
    92   83   92 1   
    93   93   94 1   
    94   93  100 1   
    95   94   95 1   
    96   94   97 1   
    97   94  101 1   
    98   95   96 2   
    99   95  109 1   
   100   97   98 1   
   101   97   99 1   
   102   97  102 1   
   103   98  103 1   
   104   98  104 1   
   105   98  105 1   
   106   99  106 1   
   107   99  107 1   
   108   99  108 1   
   109  109  110 1   
   110  109  117 1   
   111  110  111 1   
   112  110  113 1   
   113  110  118 1   
   114  111  112 2   
   115  111  123 1   
   116  113  114 1   
   117  113  119 1   
   118  113  120 1   
   119  114  115 1   
   120  114  116 2   
   121  115  121 1   
   122  115  122 1   
   123  123  124 1   
   124  123  135 1   
   125  124  125 1   
   126  124  127 1   
   127  124  136 1   
   128  125  126 2   
   129  125  144 1   
   130  127  128 1   
   131  127  137 1   
   132  127  138 1   
   133  128  129 ar  
   134  128  130 ar  
   135  129  131 ar  
   136  129  139 1   
   137  130  132 ar  
   138  130  140 1   
   139  131  133 ar  
   140  131  141 1   
   141  132  133 ar  
   142  132  142 1   
   143  133  134 1   
   144  134  143 1   
   145  144  145 1   
   146  144  153 1   
   147  145  146 1   
   148  145  148 1   
   149  145  154 1   
   150  146  147 2   
   151  146  159 1   
   152  148  149 1   
   153  148  155 1   
   154  148  156 1   
   155  149  150 1   
   156  149  157 1   
   157  149  158 1   
   158  150  151 1   
   159  150  152 1   
   160  159  160 1   
   161  159  168 1   
   162  160  161 1   
   163  160  163 1   
   164  160  169 1   
   165  161  162 2   
   166  161  174 1   
   167  163  164 1   
   168  163  170 1   
   169  163  171 1   
   170  164  165 1   
   171  164  172 1   
   172  164  173 1   
   173  165  166 1   
   174  165  167 1   
   175  174  175 1   
   176  174  179 1   
   177  175  176 1   
   178  175  177 1   
   179  175  178 1   
   180  181  183 1   
   181  181  185 1   
   182  182  184 1   
   183  182  186 1   
   184  187  188 1   
   185  187  189 1   
@<TRIPOS>SUBSTRUCTURE
     1 MOL         1 TEMP              0 ****  ****    0 ROOT
