@<TRIPOS>MOLECULE
MOL
  179   176     1     0     0
SMALL
resp


@<TRIPOS>ATOM
      1 C1          0.4680    3.5460    5.6070 c3        1 MOL     -0.287208
      2 C2          0.2430    3.3900    4.0780 c         1 MOL      0.614912
      3 O1          1.1970    3.4900    3.3010 o         1 MOL     -0.543028
      4 H1          1.4690    3.9390    5.7880 hc        1 MOL      0.081063
      5 H2         -0.2720    4.2350    6.0150 hc        1 MOL      0.081063
      6 H3          0.3670    2.5750    6.0900 hc        1 MOL      0.081063
      7 N1         -1.0190    3.1220    3.6210 n         1 MOL     -0.513845
      8 C3         -1.2600    2.9120    2.2180 c3        1 MOL     -0.200868
      9 C4         -1.9850    4.0540    1.4580 c         1 MOL      0.527428
     10 O2         -3.0760    4.4500    1.8320 o         1 MOL     -0.531479
     11 C5         -2.0600    1.6300    2.0430 c3        1 MOL     -0.031848
     12 C6         -2.2750    1.1690    0.6400 c         1 MOL      0.906247
     13 O3         -1.7660    1.7950   -0.3010 o         1 MOL     -0.874477
     14 O4         -2.8960    0.1360    0.4720 o         1 MOL     -0.874477
     15 H4         -1.7870    3.1060    4.2820 hn        1 MOL      0.331741
     16 H5         -0.2910    2.6930    1.7730 h1        1 MOL      0.088328
     17 H6         -3.0130    1.7100    2.5630 hc        1 MOL      0.032342
     18 H7         -1.5730    0.8290    2.6090 hc        1 MOL      0.032342
     19 N2         -1.3430    4.6740    0.4700 n         1 MOL     -0.241012
     20 C7         -1.8660    5.8720   -0.2000 c3        1 MOL      0.018112
     21 C8         -2.9110    5.6380   -1.2720 c         1 MOL      0.430717
     22 O5         -3.7670    6.4740   -1.3020 o         1 MOL     -0.533017
     23 C9         -0.7170    6.6810   -0.7930 c3        1 MOL     -0.194189
     24 C10         0.3270    7.1390    0.2560 c3        1 MOL      0.094703
     25 C11        -0.2710    7.8340    1.5140 c3        1 MOL     -0.100371
     26 C12         0.9380    8.1200    2.4870 c3        1 MOL      0.055515
     27 N3          0.4510    8.8980    3.6350 n4        1 MOL     -0.479397
     28 H8         -0.5320    4.1880    0.1190 hn        1 MOL      0.293890
     29 H9         -2.4130    6.4860    0.5250 h1        1 MOL      0.073386
     30 H10        -1.0680    7.5510   -1.3540 hc        1 MOL      0.086216
     31 H11        -0.2850    6.0800   -1.5810 hc        1 MOL      0.086216
     32 H12         1.0950    7.8330   -0.0870 hc        1 MOL     -0.018527
     33 H13         0.7610    6.2360    0.6790 hc        1 MOL     -0.018527
     34 H14        -1.0520    7.2640    2.0130 hc        1 MOL      0.055212
     35 H15        -0.7660    8.7670    1.2320 hc        1 MOL      0.055212
     36 H16         1.6520    8.7340    1.9230 hx        1 MOL      0.107342
     37 H17         1.5170    7.2730    2.8620 hx        1 MOL      0.107342
     38 H18         1.0730    8.8050    4.4280 hn        1 MOL      0.358176
     39 H19         0.2810    9.8320    3.2760 hn        1 MOL      0.358176
     40 H20        -0.4490    8.4880    3.8410 hn        1 MOL      0.358176
     41 N4         -2.8820    4.5070   -2.0180 n         1 MOL     -0.315793
     42 C13        -3.9610    4.0970   -2.9720 c3        1 MOL     -0.030097
     43 C14        -5.1670    3.4340   -2.2490 c         1 MOL      0.412884
     44 O6         -6.1290    3.2480   -2.9730 o         1 MOL     -0.520129
     45 C15        -3.4060    3.2080   -4.0550 c3        1 MOL     -0.204523
     46 C16        -2.8810    1.9340   -3.4060 c         1 MOL      0.785704
     47 O7         -1.7260    1.5560   -3.6740 o         1 MOL     -0.723195
     48 O8         -3.6310    1.1490   -2.7410 o         1 MOL     -0.723195
     49 H21        -2.0730    3.9680   -1.7810 hn        1 MOL      0.221047
     50 H22        -4.4280    5.0080   -3.3410 h1        1 MOL      0.130602
     51 H23        -2.6240    3.7380   -4.5950 hc        1 MOL      0.076174
     52 H24        -4.1140    2.9060   -4.8330 hc        1 MOL      0.076174
     53 N5         -5.1220    3.1540   -0.9340 n         1 MOL     -0.122043
     54 C17        -6.2570    2.6440   -0.0990 c3        1 MOL     -0.317761
     55 C18        -6.6580    1.1800   -0.2930 c         1 MOL      0.500389
     56 O9         -7.6480    0.8210    0.3750 o         1 MOL     -0.561661
     57 H25        -4.3090    3.4100   -0.3910 hn        1 MOL      0.183897
     58 H26        -7.1540    3.1860   -0.4030 h1        1 MOL      0.147932
     59 H27        -5.9320    2.8580    0.9120 h1        1 MOL      0.147932
     60 N6         -5.8870    0.3380   -0.9600 n         1 MOL     -0.149505
     61 C19        -6.3420   -1.0150   -1.1850 c3        1 MOL     -0.012794
     62 C20        -6.1190   -1.8590    0.0770 c         1 MOL      0.314251
     63 O10        -6.7230   -2.9430    0.1940 o         1 MOL     -0.506128
     64 C21        -5.7040   -1.6060   -2.4130 c3        1 MOL     -0.140537
     65 C22        -4.6170   -2.6500   -2.1640 c         1 MOL      0.638446
     66 N7         -5.0490   -3.8600   -2.1170 n         1 MOL     -0.732827
     67 O11        -3.4490   -2.3830   -1.8410 o         1 MOL     -0.631933
     68 H28        -5.0740    0.7340   -1.4320 hn        1 MOL      0.171529
     69 H29        -7.4180   -0.9590   -1.3750 h1        1 MOL      0.120178
     70 H30        -5.2120   -0.7990   -2.9610 hc        1 MOL      0.056392
     71 H31        -6.4690   -2.0480   -3.0540 hc        1 MOL      0.056392
     72 H32        -6.0210   -4.0130   -2.3210 hn        1 MOL      0.371239
     73 H33        -4.5270   -4.6590   -1.7650 hn        1 MOL      0.371239
     74 N8         -5.2810   -1.3370    1.0030 n         1 MOL     -0.085770
     75 C23        -5.2030   -1.8530    2.3820 c3        1 MOL     -0.182422
     76 C24        -3.9360   -2.7560    2.6200 c         1 MOL      0.476816
     77 O12        -3.7930   -3.3500    3.6400 o         1 MOL     -0.540012
     78 H34        -4.6130   -0.6400    0.6890 hn        1 MOL      0.178590
     79 H35        -6.1200   -2.3840    2.6590 h1        1 MOL      0.106630
     80 H36        -5.1070   -0.9880    3.0410 h1        1 MOL      0.106630
     81 N9         -3.1390   -2.7990    1.5430 n         1 MOL     -0.154049
     82 C25        -1.8640   -3.6110    1.4750 c3        1 MOL      0.370889
     83 C26        -0.7540   -2.6150    1.0400 c         1 MOL      0.109850
     84 O13        -1.0260   -1.7160    0.2490 o         1 MOL     -0.441422
     85 C27        -1.9630   -4.8240    0.5950 c3        1 MOL     -0.036072
     86 C28        -2.5790   -6.0400    1.1040 ca        1 MOL     -0.124712
     87 C29        -3.9790   -6.0630    1.2830 ca        1 MOL     -0.031657
     88 C30        -1.8540   -7.2400    1.0670 ca        1 MOL     -0.031657
     89 C31        -4.6290   -7.2420    1.5170 ca        1 MOL     -0.323428
     90 C32        -2.4750   -8.4420    1.4480 ca        1 MOL     -0.323428
     91 C33        -3.8910   -8.4340    1.6120 ca        1 MOL      0.368404
     92 O14        -4.6000   -9.5860    1.6920 oh        1 MOL     -0.469525
     93 H37        -3.3190   -2.2160    0.7410 hn        1 MOL      0.126925
     94 H38        -1.6010   -3.9390    2.4830 h1        1 MOL     -0.041935
     95 H39        -0.9500   -5.0830    0.2900 hc        1 MOL      0.023480
     96 H40        -2.5200   -4.5190   -0.2910 hc        1 MOL      0.023480
     97 H41        -4.5310   -5.1500    1.1330 ha        1 MOL      0.092510
     98 H42        -0.8560   -7.3470    0.6670 ha        1 MOL      0.092510
     99 H43        -5.7050   -7.2110    1.6400 ha        1 MOL      0.162516
    100 H44        -1.8740   -9.3400    1.4760 ha        1 MOL      0.162516
    101 H45        -4.0360  -10.3430    1.8770 ho        1 MOL      0.343716
    102 N10         0.4410   -2.7960    1.5800 n         1 MOL     -0.217903
    103 C34         1.6850   -2.2100    1.0670 c3        1 MOL      0.021184
    104 C35         2.8070   -3.1200    0.6510 c         1 MOL      0.465072
    105 O15         3.0700   -4.1210    1.3240 o         1 MOL     -0.553962
    106 C36         2.2730   -1.1100    2.0080 c3        1 MOL      0.029996
    107 C37         2.9820   -1.7670    3.1730 c3        1 MOL      0.076313
    108 C38         1.1970   -0.0600    2.3610 c3        1 MOL      0.074382
    109 C39         3.2020   -0.7370    4.3220 c3        1 MOL     -0.132844
    110 H46         0.4860   -3.4170    2.3740 hn        1 MOL      0.252689
    111 H47         1.4310   -1.7080    0.1360 h1        1 MOL     -0.031923
    112 H48         3.0550   -0.6290    1.4310 hc        1 MOL     -0.193798
    113 H49         3.8580   -2.3510    2.8910 hc        1 MOL      0.003545
    114 H50         2.3780   -2.5400    3.6340 hc        1 MOL      0.003545
    115 H51         1.6430    0.7890    2.8650 hc        1 MOL      0.017503
    116 H52         0.7530    0.3360    1.4390 hc        1 MOL      0.017503
    117 H53         0.4350   -0.5280    2.9820 hc        1 MOL      0.017503
    118 H54         2.2850   -0.2800    4.6760 hc        1 MOL      0.025289
    119 H55         3.6660   -1.3250    5.1170 hc        1 MOL      0.025289
    120 H56         4.0420   -0.0520    4.2090 hc        1 MOL      0.025289
    121 N11         3.3670   -2.8450   -0.5430 n         1 MOL     -0.030541
    122 C40         4.6640   -3.3590   -0.9470 c3        1 MOL     -0.302611
    123 C41         5.8500   -2.6680   -0.2940 c         1 MOL      0.646755
    124 O16         5.7710   -1.5680    0.3210 o         1 MOL     -0.498748
    125 C42         4.6770   -3.2470   -2.4700 c3        1 MOL      0.287582
    126 O17         4.7310   -1.9370   -2.9960 oh        1 MOL     -0.577538
    127 H57         2.8430   -2.3040   -1.2180 hn        1 MOL      0.049673
    128 H58         4.6040   -4.3950   -0.5920 h1        1 MOL      0.099901
    129 H59         3.7460   -3.7300   -2.7740 h1        1 MOL     -0.007659
    130 H60         5.5300   -3.7580   -2.9110 h1        1 MOL     -0.007659
    131 H61         3.9070   -1.4590   -2.8560 ho        1 MOL      0.388068
    132 N12         7.0350   -3.2200   -0.5110 n         1 MOL     -0.501872
    133 C43         8.2870   -2.6270    0.0540 c3        1 MOL      0.157900
    134 C44         8.6260   -1.1820   -0.4660 c         1 MOL      0.465134
    135 O18         9.1480   -0.4090    0.3220 o         1 MOL     -0.538789
    136 C45         9.3490   -3.6230   -0.3370 c3        1 MOL     -0.213561
    137 H62         7.0780   -4.0930   -1.0300 hn        1 MOL      0.311034
    138 H63         8.2530   -2.5390    1.1400 h1        1 MOL      0.082831
    139 H64         9.0900   -4.6350   -0.0380 hc        1 MOL      0.061218
    140 H65         9.5040   -3.6680   -1.4120 hc        1 MOL      0.061218
    141 H66        10.2700   -3.3830    0.2030 hc        1 MOL      0.061218
    142 N13         8.2600   -0.8190   -1.6330 n         1 MOL     -0.421067
    143 C46         8.2860    0.6110   -2.1540 c3        1 MOL      0.163321
    144 C47         7.1450    1.5070   -1.6500 c         1 MOL      0.395976
    145 O19         7.3630    2.7260   -1.5330 o         1 MOL     -0.510217
    146 C48         8.3180    0.6150   -3.6300 c3        1 MOL     -0.211724
    147 H67         7.9630   -1.5500   -2.2710 hn        1 MOL      0.308971
    148 H68         9.2230    1.0350   -1.8010 h1        1 MOL      0.082338
    149 H69         7.3500    0.4770   -4.1130 hc        1 MOL      0.062208
    150 H70         8.7030    1.6020   -3.8650 hc        1 MOL      0.062208
    151 H71         9.0160   -0.1410   -4.0010 hc        1 MOL      0.062208
    152 N14         6.0050    0.8650   -1.2890 n         1 MOL     -0.115871
    153 C49         4.9670    1.7120   -0.6050 c3        1 MOL     -0.101359
    154 C50         5.2830    1.8430    0.8890 c         1 MOL      0.476776
    155 O20         5.1310    2.8750    1.4340 o         1 MOL     -0.565589
    156 C51         3.5580    1.0910   -0.6910 c3        1 MOL     -0.024074
    157 C52         2.9740    1.0670   -2.1100 c3        1 MOL     -0.174079
    158 C53         1.9210   -0.0090   -2.2560 c         1 MOL      0.790509
    159 O21         2.3840   -1.1720   -2.5380 o         1 MOL     -0.685072
    160 O22         0.7400    0.2890   -2.0620 o         1 MOL     -0.685072
    161 H72         5.9040   -0.1300   -1.1770 hn        1 MOL     -0.032713
    162 H73         4.9270    2.6890   -1.1040 h1        1 MOL      0.113609
    163 H74         2.8430    1.4870    0.0280 hc        1 MOL      0.096881
    164 H75         3.5600    0.0250   -0.4770 hc        1 MOL      0.096881
    165 H76         3.7080    1.0120   -2.9070 hc        1 MOL      0.032531
    166 H77         2.4790    2.0040   -2.3550 hc        1 MOL      0.032531
    167 N15         5.9040    0.8520    1.5270 n         1 MOL     -0.024068
    168 C54         6.3870    1.0480    2.9560 c3        1 MOL     -0.109044
    169 H78         7.4240    1.3850    2.9440 h1        1 MOL      0.061788
    170 H79         5.7680    1.7960    3.4490 h1        1 MOL      0.061788
    171 H80         6.3190    0.1040    3.4960 h1        1 MOL      0.061788
    172 H81         6.2120    0.0630    0.9910 hn        1 MOL      0.122263
    173 Ca1        -1.6520   -0.3540   -1.8870 Ca        1 MOL      1.795282
    174 O23        -1.7690   -1.5010   -4.3360 oh        1 MOL     -0.856128
    175 H82        -0.9580   -1.6730   -4.8120 ho        1 MOL      0.412955
    176 H83        -2.3900   -2.1300   -4.7060 ho        1 MOL      0.412955
    177 O24         0.1540   -2.5330   -2.2100 oh        1 MOL     -0.856128
    178 H84         0.9930   -2.1470   -2.4530 ho        1 MOL      0.412955
    179 H85         0.3650   -3.4390   -1.9990 ho        1 MOL      0.412955
@<TRIPOS>BOND
     1    1    2 1   
     2    1    4 1   
     3    1    5 1   
     4    1    6 1   
     5    2    3 2   
     6    2    7 1   
     7    7    8 1   
     8    7   15 1   
     9    8    9 1   
    10    8   11 1   
    11    8   16 1   
    12    9   10 2   
    13    9   19 1   
    14   11   12 1   
    15   11   17 1   
    16   11   18 1   
    17   12   13 1   
    18   12   14 1   
    19   19   20 1   
    20   19   28 1   
    21   20   21 1   
    22   20   23 1   
    23   20   29 1   
    24   21   22 2   
    25   21   41 1   
    26   23   24 1   
    27   23   30 1   
    28   23   31 1   
    29   24   25 1   
    30   24   32 1   
    31   24   33 1   
    32   25   26 1   
    33   25   34 1   
    34   25   35 1   
    35   26   27 1   
    36   26   36 1   
    37   26   37 1   
    38   27   38 1   
    39   27   39 1   
    40   27   40 1   
    41   41   42 1   
    42   41   49 1   
    43   42   43 1   
    44   42   45 1   
    45   42   50 1   
    46   43   44 2   
    47   43   53 1   
    48   45   46 1   
    49   45   51 1   
    50   45   52 1   
    51   46   47 1   
    52   46   48 1   
    53   53   54 1   
    54   53   57 1   
    55   54   55 1   
    56   54   58 1   
    57   54   59 1   
    58   55   56 2   
    59   55   60 1   
    60   60   61 1   
    61   60   68 1   
    62   61   62 1   
    63   61   64 1   
    64   61   69 1   
    65   62   63 2   
    66   62   74 1   
    67   64   65 1   
    68   64   70 1   
    69   64   71 1   
    70   65   66 1   
    71   65   67 2   
    72   66   72 1   
    73   66   73 1   
    74   74   75 1   
    75   74   78 1   
    76   75   76 1   
    77   75   79 1   
    78   75   80 1   
    79   76   77 2   
    80   76   81 1   
    81   81   82 1   
    82   81   93 1   
    83   82   83 1   
    84   82   85 1   
    85   82   94 1   
    86   83   84 2   
    87   83  102 1   
    88   85   86 1   
    89   85   95 1   
    90   85   96 1   
    91   86   87 ar  
    92   86   88 ar  
    93   87   89 ar  
    94   87   97 1   
    95   88   90 ar  
    96   88   98 1   
    97   89   91 ar  
    98   89   99 1   
    99   90   91 ar  
   100   90  100 1   
   101   91   92 1   
   102   92  101 1   
   103  102  103 1   
   104  102  110 1   
   105  103  104 1   
   106  103  106 1   
   107  103  111 1   
   108  104  105 2   
   109  104  121 1   
   110  106  107 1   
   111  106  108 1   
   112  106  112 1   
   113  107  109 1   
   114  107  113 1   
   115  107  114 1   
   116  108  115 1   
   117  108  116 1   
   118  108  117 1   
   119  109  118 1   
   120  109  119 1   
   121  109  120 1   
   122  121  122 1   
   123  121  127 1   
   124  122  123 1   
   125  122  125 1   
   126  122  128 1   
   127  123  124 2   
   128  123  132 1   
   129  125  126 1   
   130  125  129 1   
   131  125  130 1   
   132  126  131 1   
   133  132  133 1   
   134  132  137 1   
   135  133  134 1   
   136  133  136 1   
   137  133  138 1   
   138  134  135 2   
   139  134  142 1   
   140  136  139 1   
   141  136  140 1   
   142  136  141 1   
   143  142  143 1   
   144  142  147 1   
   145  143  144 1   
   146  143  146 1   
   147  143  148 1   
   148  144  145 2   
   149  144  152 1   
   150  146  149 1   
   151  146  150 1   
   152  146  151 1   
   153  152  153 1   
   154  152  161 1   
   155  153  154 1   
   156  153  156 1   
   157  153  162 1   
   158  154  155 2   
   159  154  167 1   
   160  156  157 1   
   161  156  163 1   
   162  156  164 1   
   163  157  158 1   
   164  157  165 1   
   165  157  166 1   
   166  158  159 1   
   167  158  160 1   
   168  167  168 1   
   169  167  172 1   
   170  168  169 1   
   171  168  170 1   
   172  168  171 1   
   173  174  175 1   
   174  174  176 1   
   175  177  178 1   
   176  177  179 1   
@<TRIPOS>SUBSTRUCTURE
     1 MOL         1 TEMP              0 ****  ****    0 ROOT
