@<TRIPOS>MOLECULE
MOL
  179   176     1     0     0
SMALL
resp


@<TRIPOS>ATOM
      1 C1         -0.4790    4.4230    4.8590 c3        1 MOL     -0.414504
      2 C2         -0.7120    3.6560    3.5350 c         1 MOL      0.649874
      3 O1         -0.1260    4.0310    2.4640 o         1 MOL     -0.599710
      4 H1         -1.0370    5.3590    4.8400 hc        1 MOL      0.111513
      5 H2         -0.8190    3.8140    5.6970 hc        1 MOL      0.111513
      6 H3          0.5840    4.6360    4.9730 hc        1 MOL      0.111513
      7 N1         -1.5970    2.7360    3.5540 n         1 MOL     -0.551384
      8 C3         -2.1170    2.0960    2.3260 c3        1 MOL      0.025149
      9 C4         -3.2250    2.9710    1.7560 c         1 MOL      0.543018
     10 O2         -4.4080    2.7880    1.9570 o         1 MOL     -0.500610
     11 C5         -2.5850    0.6970    2.6440 c3        1 MOL     -0.269479
     12 C6         -2.9690   -0.0660    1.4730 c         1 MOL      0.755667
     13 O3         -2.4990    0.2310    0.3660 o         1 MOL     -0.738451
     14 O4         -3.8510   -0.9760    1.5920 o         1 MOL     -0.738451
     15 H4         -1.8650    2.3130    4.4330 hn        1 MOL      0.346052
     16 H5         -1.3150    2.0560    1.5990 h1        1 MOL      0.054703
     17 H6         -3.3970    0.8860    3.3540 hc        1 MOL      0.082951
     18 H7         -1.7950    0.1090    3.1100 hc        1 MOL      0.082951
     19 N2         -2.8690    3.8710    0.8220 n         1 MOL     -0.255492
     20 C7         -3.7810    4.9820    0.4170 c3        1 MOL     -0.070165
     21 C8         -4.5770    4.6780   -0.8330 c         1 MOL      0.459438
     22 O5         -5.6170    5.3220   -1.0580 o         1 MOL     -0.572845
     23 C9         -2.9120    6.2520    0.1700 c3        1 MOL     -0.114894
     24 C10        -3.7860    7.5930    0.3110 c3        1 MOL      0.073128
     25 C11        -2.9880    8.8640    0.2070 c3        1 MOL     -0.055393
     26 C12        -3.8490   10.1650    0.2340 c3        1 MOL      0.013310
     27 N3         -5.1620    9.9640   -0.4200 n4        1 MOL     -0.273825
     28 H8         -1.8920    3.9190    0.5890 hn        1 MOL      0.295138
     29 H9         -4.4410    5.1980    1.2560 h1        1 MOL      0.108968
     30 H10        -2.3510    6.2580   -0.7550 hc        1 MOL      0.072907
     31 H11        -2.1770    6.1960    0.9760 hc        1 MOL      0.072907
     32 H12        -4.2890    7.6060    1.2820 hc        1 MOL     -0.006885
     33 H13        -4.5860    7.5600   -0.4240 hc        1 MOL     -0.006885
     34 H14        -2.4220    8.7400   -0.7140 hc        1 MOL      0.046490
     35 H15        -2.2090    8.9080    0.9650 hc        1 MOL      0.046490
     36 H16        -3.3870   11.0230   -0.2540 hx        1 MOL      0.082804
     37 H17        -4.0550   10.4610    1.2610 hx        1 MOL      0.082804
     38 H18        -5.6680    9.2160    0.0490 hn        1 MOL      0.307452
     39 H19        -5.6760   10.8260   -0.2870 hn        1 MOL      0.307452
     40 H20        -5.0410    9.7290   -1.3970 hn        1 MOL      0.307452
     41 N4         -4.1930    3.6080   -1.4950 n         1 MOL     -0.298903
     42 C13        -5.1150    2.8680   -2.3380 c3        1 MOL      0.063719
     43 C14        -5.9340    1.7470   -1.6060 c         1 MOL      0.388830
     44 O6         -6.9480    1.2000   -2.0880 o         1 MOL     -0.495406
     45 C15        -4.2500    2.3060   -3.4770 c3        1 MOL     -0.161494
     46 C16        -3.1200    1.3710   -3.0170 c         1 MOL      0.646369
     47 O7         -2.1160    1.8190   -2.3850 o         1 MOL     -0.694813
     48 O8         -3.1530    0.1110   -3.2120 o         1 MOL     -0.694813
     49 H21        -3.3230    3.1580   -1.2680 hn        1 MOL      0.179988
     50 H22        -5.8680    3.4550   -2.8650 h1        1 MOL      0.093917
     51 H23        -3.7720    3.0650   -4.0880 hc        1 MOL      0.047002
     52 H24        -4.9280    1.7910   -4.1670 hc        1 MOL      0.047002
     53 N5         -5.5530    1.5110   -0.2740 n         1 MOL     -0.077421
     54 C17        -6.3000    0.6090    0.5840 c3        1 MOL     -0.059806
     55 C18        -6.5420   -0.8270    0.0220 c         1 MOL      0.498041
     56 O9         -7.6490   -1.3810    0.2810 o         1 MOL     -0.562226
     57 H25        -4.7060    1.8620    0.1300 hn        1 MOL      0.043698
     58 H26        -7.2180    1.0200    0.9870 h1        1 MOL      0.065642
     59 H27        -5.6260    0.4940    1.4300 h1        1 MOL      0.065642
     60 N6         -5.5050   -1.3720   -0.6990 n         1 MOL     -0.232652
     61 C19        -5.4760   -2.7440   -1.1270 c3        1 MOL     -0.203919
     62 C20        -5.0870   -3.8410   -0.1180 c         1 MOL      0.323665
     63 O10        -4.8480   -4.9680   -0.5690 o         1 MOL     -0.439700
     64 C21        -4.7560   -2.8520   -2.4400 c3        1 MOL     -0.075054
     65 C22        -3.2340   -2.8170   -2.4220 c         1 MOL      0.413398
     66 N7         -2.4860   -3.3060   -3.3830 n         1 MOL     -0.706809
     67 O11        -2.6250   -2.3390   -1.5440 o         1 MOL     -0.378529
     68 H28        -4.6670   -0.8110   -0.7020 hn        1 MOL      0.203473
     69 H29        -6.5050   -2.9500   -1.4240 h1        1 MOL      0.168464
     70 H30        -5.0190   -2.0170   -3.0890 hc        1 MOL      0.073700
     71 H31        -5.1130   -3.7250   -2.9800 hc        1 MOL      0.073700
     72 H32        -2.8920   -3.6980   -4.2200 hn        1 MOL      0.333126
     73 H33        -1.4800   -3.2880   -3.2450 hn        1 MOL      0.333126
     74 N8         -5.0150   -3.5110    1.1550 n         1 MOL     -0.240416
     75 C23        -4.4830   -4.4420    2.2440 c3        1 MOL     -0.273612
     76 C24        -2.9220   -4.4570    2.3220 c         1 MOL      0.678702
     77 O12        -2.5090   -5.1760    3.2390 o         1 MOL     -0.579332
     78 H34        -5.0510   -2.5200    1.3460 hn        1 MOL      0.296969
     79 H35        -4.7580   -5.4760    2.0430 h1        1 MOL      0.152524
     80 H36        -5.0300   -4.1980    3.1510 h1        1 MOL      0.152524
     81 N9         -2.1030   -3.7870    1.4860 n         1 MOL     -0.608217
     82 C25        -0.6080   -3.9620    1.5050 c3        1 MOL      0.208841
     83 C26         0.1540   -2.6590    1.2560 c         1 MOL      0.485512
     84 O13        -0.2660   -1.7200    0.5720 o         1 MOL     -0.632148
     85 C27        -0.1540   -4.9340    0.4700 c3        1 MOL     -0.051617
     86 C28        -1.0340   -6.1940    0.3550 ca        1 MOL      0.036149
     87 C29        -2.1870   -6.3190   -0.4720 ca        1 MOL     -0.195614
     88 C30        -0.6070   -7.3130    1.1420 ca        1 MOL     -0.195614
     89 C31        -2.7760   -7.5560   -0.6070 ca        1 MOL     -0.184026
     90 C32        -1.2650   -8.5380    1.0430 ca        1 MOL     -0.184026
     91 C33        -2.2870   -8.7060    0.1080 ca        1 MOL      0.280158
     92 O14        -2.9770   -9.8610   -0.0150 oh        1 MOL     -0.509488
     93 H37        -2.4500   -3.2700    0.6850 hn        1 MOL      0.493589
     94 H38        -0.1520   -4.3510    2.4160 h1        1 MOL      0.047009
     95 H39         0.8270   -5.3360    0.7220 hc        1 MOL      0.010917
     96 H40        -0.0870   -4.4270   -0.4930 hc        1 MOL      0.010917
     97 H41        -2.4780   -5.4430   -1.0260 ha        1 MOL      0.132250
     98 H42         0.1840   -7.2500    1.8730 ha        1 MOL      0.132250
     99 H43        -3.6830   -7.7160   -1.1680 ha        1 MOL      0.121819
    100 H44        -0.9890   -9.3140    1.7410 ha        1 MOL      0.121819
    101 H45        -2.9580  -10.5210    0.6830 ho        1 MOL      0.388065
    102 N10         1.4540   -2.6480    1.6480 n         1 MOL     -0.498896
    103 C34         2.3430   -1.5390    1.2910 c3        1 MOL     -0.001734
    104 C35         3.7230   -2.1410    0.8880 c         1 MOL      0.380153
    105 O15         4.3480   -2.8240    1.7420 o         1 MOL     -0.497361
    106 C36         2.3370   -0.5470    2.4480 c3        1 MOL      0.262052
    107 C37         2.5120   -1.2090    3.8620 c3        1 MOL     -0.167451
    108 C38         1.0240    0.2440    2.5200 c3        1 MOL     -0.529671
    109 C39         2.6680   -0.2000    5.0210 c3        1 MOL     -0.060926
    110 H46         1.8350   -3.4560    2.1190 hn        1 MOL      0.318312
    111 H47         1.9930   -1.0320    0.3920 h1        1 MOL      0.051235
    112 H48         3.1200    0.1950    2.3010 hc        1 MOL     -0.026521
    113 H49         3.3860   -1.8490    3.8110 hc        1 MOL      0.056682
    114 H50         1.5880   -1.7680    4.0460 hc        1 MOL      0.056682
    115 H51         0.6430    0.4510    1.5240 hc        1 MOL      0.164416
    116 H52         0.2880   -0.1990    3.1930 hc        1 MOL      0.164416
    117 H53         1.3200    1.1680    3.0020 hc        1 MOL      0.164416
    118 H54         1.7620    0.3310    5.2980 hc        1 MOL      0.018151
    119 H55         2.9980   -0.6570    5.9450 hc        1 MOL      0.018151
    120 H56         3.4100    0.5220    4.6840 hc        1 MOL      0.018151
    121 N11         4.0050   -1.9690   -0.3720 n         1 MOL     -0.274596
    122 C40         5.3570   -2.2910   -0.9530 c3        1 MOL     -0.044460
    123 C41         6.4640   -1.5260   -0.2930 c         1 MOL      0.309716
    124 O16         6.1090   -0.4760    0.3270 o         1 MOL     -0.337913
    125 C42         5.2970   -2.3420   -2.4730 c3        1 MOL     -0.274656
    126 O17         5.2030   -1.0400   -2.9820 oh        1 MOL     -0.523860
    127 H57         3.3050   -1.5040   -0.9300 hn        1 MOL      0.255941
    128 H58         5.5310   -3.3350   -0.6740 h1        1 MOL      0.075207
    129 H59         4.4310   -2.9530   -2.7410 h1        1 MOL      0.178539
    130 H60         6.2070   -2.7840   -2.8580 h1        1 MOL      0.178539
    131 H61         4.3480   -0.9010   -3.3940 ho        1 MOL      0.395546
    132 N12         7.7620   -1.7960   -0.5610 n         1 MOL     -0.274676
    133 C43         8.8680   -0.9700   -0.1290 c3        1 MOL      0.051142
    134 C44         8.9010    0.4990   -0.6740 c         1 MOL      0.531856
    135 O18         9.3430    1.3900    0.0540 o         1 MOL     -0.521372
    136 C45        10.1920   -1.7010   -0.4570 c3        1 MOL     -0.296056
    137 H62         7.8820   -2.6590   -1.0750 hn        1 MOL      0.263225
    138 H63         8.7970   -0.8470    0.9560 h1        1 MOL      0.098549
    139 H64        10.1020   -2.6790   -0.0070 hc        1 MOL      0.092916
    140 H65        10.2160   -1.7030   -1.5520 hc        1 MOL      0.092916
    141 H66        11.0260   -1.1200   -0.0610 hc        1 MOL      0.092916
    142 N13         8.4320    0.7580   -1.9240 n         1 MOL     -0.464927
    143 C46         8.0800    2.0450   -2.4640 c3        1 MOL      0.100248
    144 C47         7.0330    2.8010   -1.5010 c         1 MOL      0.268096
    145 O19         6.9930    4.0220   -1.4450 o         1 MOL     -0.523116
    146 C48         7.5060    1.8460   -3.8510 c3        1 MOL     -0.187779
    147 H67         8.1870   -0.1080   -2.3960 hn        1 MOL      0.265249
    148 H68         8.9350    2.7160   -2.5810 h1        1 MOL      0.085294
    149 H69         7.2950    2.8310   -4.2530 hc        1 MOL      0.053129
    150 H70         8.1380    1.3910   -4.6110 hc        1 MOL      0.053129
    151 H71         6.5520    1.3380   -3.7230 hc        1 MOL      0.053129
    152 N14         6.1460    2.1320   -0.8670 n         1 MOL      0.007434
    153 C49         5.2060    2.7150    0.0890 c3        1 MOL     -0.175754
    154 C50         5.7610    2.7540    1.5120 c         1 MOL      0.601857
    155 O20         5.3810    3.7040    2.1880 o         1 MOL     -0.566028
    156 C51         3.8520    2.0060    0.1270 c3        1 MOL     -0.020511
    157 C52         3.1540    1.9900   -1.2910 c3        1 MOL      0.047081
    158 C53         1.9580    1.0370   -1.4120 c         1 MOL      0.685491
    159 O21         2.0690   -0.1270   -1.8950 o         1 MOL     -0.735586
    160 O22         0.8470    1.4530   -1.1440 o         1 MOL     -0.735586
    161 H72         6.0360    1.1540   -1.0970 hn        1 MOL      0.353670
    162 H73         5.1260    3.7870   -0.1300 h1        1 MOL      0.119345
    163 H74         3.2920    2.5700    0.8730 hc        1 MOL      0.037936
    164 H75         3.9720    0.9730    0.4590 hc        1 MOL      0.037936
    165 H76         3.9930    1.6400   -1.8910 hc        1 MOL     -0.045789
    166 H77         2.9680    2.9740   -1.7270 hc        1 MOL     -0.045789
    167 N15         6.6240    1.8250    2.0450 n         1 MOL     -0.265513
    168 C54         7.4430    2.0680    3.2630 c3        1 MOL     -0.318908
    169 H78         6.9940    2.8720    3.8470 h1        1 MOL      0.127600
    170 H79         7.4800    1.1600    3.8640 h1        1 MOL      0.127600
    171 H80         8.4540    2.3530    2.9710 h1        1 MOL      0.127600
    172 H81         6.7170    0.9520    1.5410 hn        1 MOL      0.149964
    173 Ca1        -0.7950   -0.3730   -1.6170 Ca        1 MOL      1.733694
    174 O23        -0.1260    0.6280   -4.2530 oh        1 MOL     -0.789439
    175 H82        -0.5220    0.5960   -5.1220 ho        1 MOL      0.402370
    176 H83         0.5220    1.3330   -4.3150 ho        1 MOL      0.402370
    177 O24         0.1950   -2.6880   -2.8900 oh        1 MOL     -0.789439
    178 H84         0.6760   -2.7500   -3.7070 ho        1 MOL      0.402370
    179 H85         0.4240   -3.4930   -2.4170 ho        1 MOL      0.402370
@<TRIPOS>BOND
     1    1    2 1   
     2    1    4 1   
     3    1    5 1   
     4    1    6 1   
     5    2    3 2   
     6    2    7 1   
     7    7    8 1   
     8    7   15 1   
     9    8    9 1   
    10    8   11 1   
    11    8   16 1   
    12    9   10 2   
    13    9   19 1   
    14   11   12 1   
    15   11   17 1   
    16   11   18 1   
    17   12   13 1   
    18   12   14 1   
    19   19   20 1   
    20   19   28 1   
    21   20   21 1   
    22   20   23 1   
    23   20   29 1   
    24   21   22 2   
    25   21   41 1   
    26   23   24 1   
    27   23   30 1   
    28   23   31 1   
    29   24   25 1   
    30   24   32 1   
    31   24   33 1   
    32   25   26 1   
    33   25   34 1   
    34   25   35 1   
    35   26   27 1   
    36   26   36 1   
    37   26   37 1   
    38   27   38 1   
    39   27   39 1   
    40   27   40 1   
    41   41   42 1   
    42   41   49 1   
    43   42   43 1   
    44   42   45 1   
    45   42   50 1   
    46   43   44 2   
    47   43   53 1   
    48   45   46 1   
    49   45   51 1   
    50   45   52 1   
    51   46   47 1   
    52   46   48 1   
    53   53   54 1   
    54   53   57 1   
    55   54   55 1   
    56   54   58 1   
    57   54   59 1   
    58   55   56 2   
    59   55   60 1   
    60   60   61 1   
    61   60   68 1   
    62   61   62 1   
    63   61   64 1   
    64   61   69 1   
    65   62   63 2   
    66   62   74 1   
    67   64   65 1   
    68   64   70 1   
    69   64   71 1   
    70   65   66 1   
    71   65   67 2   
    72   66   72 1   
    73   66   73 1   
    74   74   75 1   
    75   74   78 1   
    76   75   76 1   
    77   75   79 1   
    78   75   80 1   
    79   76   77 2   
    80   76   81 1   
    81   81   82 1   
    82   81   93 1   
    83   82   83 1   
    84   82   85 1   
    85   82   94 1   
    86   83   84 2   
    87   83  102 1   
    88   85   86 1   
    89   85   95 1   
    90   85   96 1   
    91   86   87 ar  
    92   86   88 ar  
    93   87   89 ar  
    94   87   97 1   
    95   88   90 ar  
    96   88   98 1   
    97   89   91 ar  
    98   89   99 1   
    99   90   91 ar  
   100   90  100 1   
   101   91   92 1   
   102   92  101 1   
   103  102  103 1   
   104  102  110 1   
   105  103  104 1   
   106  103  106 1   
   107  103  111 1   
   108  104  105 2   
   109  104  121 1   
   110  106  107 1   
   111  106  108 1   
   112  106  112 1   
   113  107  109 1   
   114  107  113 1   
   115  107  114 1   
   116  108  115 1   
   117  108  116 1   
   118  108  117 1   
   119  109  118 1   
   120  109  119 1   
   121  109  120 1   
   122  121  122 1   
   123  121  127 1   
   124  122  123 1   
   125  122  125 1   
   126  122  128 1   
   127  123  124 2   
   128  123  132 1   
   129  125  126 1   
   130  125  129 1   
   131  125  130 1   
   132  126  131 1   
   133  132  133 1   
   134  132  137 1   
   135  133  134 1   
   136  133  136 1   
   137  133  138 1   
   138  134  135 2   
   139  134  142 1   
   140  136  139 1   
   141  136  140 1   
   142  136  141 1   
   143  142  143 1   
   144  142  147 1   
   145  143  144 1   
   146  143  146 1   
   147  143  148 1   
   148  144  145 2   
   149  144  152 1   
   150  146  149 1   
   151  146  150 1   
   152  146  151 1   
   153  152  153 1   
   154  152  161 1   
   155  153  154 1   
   156  153  156 1   
   157  153  162 1   
   158  154  155 2   
   159  154  167 1   
   160  156  157 1   
   161  156  163 1   
   162  156  164 1   
   163  157  158 1   
   164  157  165 1   
   165  157  166 1   
   166  158  159 1   
   167  158  160 1   
   168  167  168 1   
   169  167  172 1   
   170  168  169 1   
   171  168  170 1   
   172  168  171 1   
   173  174  175 1   
   174  174  176 1   
   175  177  178 1   
   176  177  179 1   
@<TRIPOS>SUBSTRUCTURE
     1 MOL         1 TEMP              0 ****  ****    0 ROOT
