@<TRIPOS>MOLECULE
MOL
  186   183     1     0     0
SMALL
resp


@<TRIPOS>ATOM
      1 C1         -0.0430   -2.2550    5.9980 c3        1 MOL     -0.352011
      2 C2          0.5000   -2.3430    4.5510 c         1 MOL      0.733159
      3 O1         -0.1490   -2.9930    3.7010 o         1 MOL     -0.588743
      4 H1         -0.8580   -1.5310    6.0370 hc        1 MOL      0.084631
      5 H2         -0.4130   -3.2330    6.3080 hc        1 MOL      0.084631
      6 H3          0.7550   -1.9390    6.6690 hc        1 MOL      0.084631
      7 N1          1.7100   -1.8300    4.2660 n         1 MOL     -0.602651
      8 C3          2.3000   -1.8250    2.9750 c3        1 MOL      0.185071
      9 C4          2.8830   -3.1500    2.5290 c         1 MOL      0.570819
     10 O2          3.6750   -3.6760    3.2440 o         1 MOL     -0.588452
     11 C5          3.3880   -0.7800    3.1280 c3        1 MOL     -0.102726
     12 C6          4.1170   -0.4660    1.8140 c         1 MOL      0.699690
     13 O3          3.7690   -1.0690    0.7850 o         1 MOL     -0.664416
     14 O4          5.1020    0.2910    1.9060 o         1 MOL     -0.664416
     15 H4          2.3200   -1.3860    4.9360 hn        1 MOL      0.304125
     16 H5          1.5780   -1.3920    2.2760 h1        1 MOL      0.007037
     17 H6          4.1520   -1.0780    3.8390 hc        1 MOL      0.005384
     18 H7          2.9170    0.1360    3.4970 hc        1 MOL      0.005384
     19 N2          2.4750   -3.6300    1.3720 n         1 MOL     -0.222719
     20 C7          2.7760   -5.0600    0.9280 c3        1 MOL     -0.230009
     21 C8          3.8890   -5.1070   -0.1160 c         1 MOL      0.604818
     22 O5          4.6970   -6.0370   -0.0670 o         1 MOL     -0.601513
     23 C9          1.5010   -5.7550    0.4540 c3        1 MOL      0.183685
     24 C10         0.4170   -5.8160    1.5280 c3        1 MOL      0.028814
     25 C11         1.8570   -7.2300    0.1420 c3        1 MOL     -0.260449
     26 C12        -1.0030   -6.3210    1.0950 c3        1 MOL     -0.185660
     27 H8          1.8880   -3.1070    0.7420 hn        1 MOL      0.083453
     28 H9          3.1360   -5.5790    1.8180 h1        1 MOL      0.117381
     29 H10         1.1500   -5.3270   -0.4890 hc        1 MOL      0.025799
     30 H11         0.2330   -4.8440    1.9840 hc        1 MOL      0.015551
     31 H12         0.7660   -6.4950    2.3120 hc        1 MOL      0.015551
     32 H13         1.0060   -7.8560   -0.1150 hc        1 MOL      0.045796
     33 H14         2.6210   -7.2350   -0.6390 hc        1 MOL      0.045796
     34 H15         2.2650   -7.7290    1.0210 hc        1 MOL      0.045796
     35 H16        -1.3150   -5.8140    0.1840 hc        1 MOL      0.037363
     36 H17        -1.1280   -7.3910    0.9140 hc        1 MOL      0.037363
     37 H18        -1.7150   -6.1060    1.8990 hc        1 MOL      0.037363
     38 N3          4.1030   -4.1110   -0.9570 n         1 MOL     -0.364324
     39 C13         5.2040   -4.0840   -1.9310 c3        1 MOL      0.087101
     40 C14         6.3830   -3.2060   -1.4500 c         1 MOL      0.396626
     41 O6          7.5070   -3.3640   -1.9800 o         1 MOL     -0.551025
     42 C15         4.5990   -3.5710   -3.2740 c3        1 MOL     -0.256680
     43 C16         3.8710   -2.2650   -3.1780 c         1 MOL      0.770394
     44 O7          3.0130   -2.0640   -4.0290 o         1 MOL     -0.686382
     45 O8          3.9790   -1.5400   -2.1330 o         1 MOL     -0.686382
     46 H19         3.4580   -3.3350   -0.9390 hn        1 MOL      0.272638
     47 H20         5.5600   -5.1080   -1.9880 h1        1 MOL      0.071486
     48 H21         3.8900   -4.3510   -3.5520 hc        1 MOL      0.063074
     49 H22         5.3370   -3.6420   -4.0750 hc        1 MOL      0.063074
     50 N4          6.1810   -2.2250   -0.4900 n         1 MOL     -0.084984
     51 C17         7.3600   -1.6190    0.1830 c3        1 MOL     -0.435266
     52 C18         7.8850   -0.3440   -0.4390 c         1 MOL      0.639743
     53 O9          9.0130    0.0430   -0.2550 o         1 MOL     -0.632166
     54 H23         5.2800   -2.0100   -0.0730 hn        1 MOL      0.182328
     55 H24         8.2400   -2.2740    0.1710 h1        1 MOL      0.160911
     56 H25         7.0350   -1.3430    1.1810 h1        1 MOL      0.160911
     57 N5          7.0340    0.3570   -1.1300 n         1 MOL     -0.222216
     58 C19         7.2860    1.7330   -1.6730 c3        1 MOL      0.006855
     59 C20         7.1190    2.8730   -0.6090 c         1 MOL      0.465209
     60 O10         7.6140    3.9140   -0.8600 o         1 MOL     -0.566033
     61 C21         6.2970    1.9530   -2.8260 c3        1 MOL     -0.254214
     62 C22         4.7860    1.7360   -2.4770 c         1 MOL      0.705696
     63 O11         4.3120    2.1540   -1.3630 o         1 MOL     -0.693647
     64 O12         3.9870    1.1810   -3.3100 o         1 MOL     -0.693647
     65 H26         6.0900   -0.0140   -1.1760 hn        1 MOL      0.102993
     66 H27         8.2950    1.7330   -2.0690 h1        1 MOL      0.086677
     67 H28         6.4500    1.2710   -3.6530 hc        1 MOL      0.066638
     68 H29         6.4130    2.9970   -3.1310 hc        1 MOL      0.066638
     69 N6          6.4710    2.6110    0.5240 n         1 MOL     -0.060059
     70 C23         6.4770    3.6060    1.5530 c3        1 MOL     -0.324321
     71 C24         5.0960    4.1710    1.8140 c         1 MOL      0.565450
     72 O13         4.9200    4.9940    2.6600 o         1 MOL     -0.619443
     73 H30         5.9910    1.7440    0.7270 hn        1 MOL      0.107541
     74 H31         7.1990    4.4150    1.4360 h1        1 MOL      0.139810
     75 H32         6.6470    3.0710    2.4840 h1        1 MOL      0.139810
     76 N7          4.0310    3.8200    1.1160 n         1 MOL     -0.178160
     77 C25         2.6340    4.2720    1.3330 c3        1 MOL     -0.033215
     78 C26         1.6380    3.0830    1.4770 c         1 MOL      0.474332
     79 O14         1.9590    1.9480    0.9890 o         1 MOL     -0.591244
     80 C27         2.3000    5.3320    0.2650 c3        1 MOL     -0.006540
     81 C28         3.1970    6.5250    0.2610 c3        1 MOL     -0.174666
     82 C29         2.6150    7.7680   -0.3360 c         1 MOL      0.623428
     83 N8          2.7980    8.0000   -1.6050 n         1 MOL     -0.795645
     84 O15         1.8470    8.4740    0.3890 o         1 MOL     -0.578545
     85 H33         4.1220    3.1580    0.3580 hn        1 MOL      0.145480
     86 H34         2.5960    4.8670    2.2520 h1        1 MOL      0.084715
     87 H35         1.2890    5.6640    0.5260 hc        1 MOL      0.035096
     88 H36         2.3680    4.8730   -0.7150 hc        1 MOL      0.035096
     89 H37         4.0220    6.3070   -0.4150 hc        1 MOL      0.061542
     90 H38         3.5380    6.7560    1.2770 hc        1 MOL      0.061542
     91 H39         3.3810    7.3560   -2.1210 hn        1 MOL      0.368731
     92 H40         2.3750    8.7330   -2.1650 hn        1 MOL      0.368731
     93 N9          0.4470    3.3210    2.0300 n         1 MOL     -0.382630
     94 C30        -0.7090    2.3820    2.2220 c3        1 MOL      0.075525
     95 C31        -1.8140    2.7170    1.2410 c         1 MOL      0.211449
     96 O16        -2.6020    3.6310    1.4920 o         1 MOL     -0.510343
     97 C32        -1.2040    2.4710    3.7340 c3        1 MOL      0.230385
     98 C33        -2.0550    1.2510    3.9950 c3        1 MOL     -0.173467
     99 C34        -0.1210    2.4600    4.8020 c3        1 MOL     -0.173467
    100 H41         0.2480    4.2130    2.4520 hn        1 MOL      0.277863
    101 H42        -0.3650    1.4160    1.8640 h1        1 MOL      0.120805
    102 H43        -1.8230    3.3390    3.9460 hc        1 MOL     -0.013204
    103 H44        -2.3340    1.2010    5.0530 hc        1 MOL      0.025453
    104 H45        -2.9600    1.4190    3.4110 hc        1 MOL      0.025453
    105 H46        -1.6240    0.3160    3.6500 hc        1 MOL      0.025453
    106 H47        -0.4920    2.5790    5.8170 hc        1 MOL      0.025453
    107 H48         0.4430    1.5250    4.8090 hc        1 MOL      0.025453
    108 H49         0.5340    3.3200    4.6610 hc        1 MOL      0.025453
    109 N10        -1.9710    1.8960    0.2110 n         1 MOL     -0.002533
    110 C35        -2.9710    2.0690   -0.8370 c3        1 MOL      0.107427
    111 C36        -4.3230    1.7710   -0.2550 c         1 MOL      0.353150
    112 O17        -4.3590    1.2400    0.8760 o         1 MOL     -0.356488
    113 C37        -2.5990    1.2130   -2.0700 c3        1 MOL     -0.467558
    114 C38        -3.0870    1.6670   -3.4460 c         1 MOL      0.759104
    115 N11        -2.5700    1.2140   -4.5280 n         1 MOL     -0.778049
    116 O18        -3.9640    2.5760   -3.5730 o         1 MOL     -0.603701
    117 H50        -1.2230    1.2650   -0.0470 hn        1 MOL      0.143906
    118 H51        -3.0180    3.1190   -1.1310 h1        1 MOL      0.053561
    119 H52        -2.9120    0.1670   -2.0170 hc        1 MOL      0.165050
    120 H53        -1.5070    1.1280   -2.1250 hc        1 MOL      0.165050
    121 H54        -1.8980    0.4730   -4.3420 hn        1 MOL      0.383029
    122 H55        -2.8400    1.4270   -5.4730 hn        1 MOL      0.383029
    123 N12        -5.3920    1.9920   -1.0060 n         1 MOL     -0.379860
    124 C39        -6.7500    1.7130   -0.5370 c3        1 MOL      0.075523
    125 C40        -7.0440    0.1890   -0.4590 c         1 MOL      0.492475
    126 O19        -7.7110   -0.4390    0.4250 o         1 MOL     -0.482536
    127 C41        -7.8750    2.3880   -1.3650 c3        1 MOL     -0.007525
    128 C42        -9.2250    2.0380   -0.7400 ca        1 MOL     -0.120429
    129 C43        -9.3890    2.4400    0.5980 ca        1 MOL     -0.078983
    130 C44       -10.2010    1.2920   -1.4270 ca        1 MOL     -0.078983
    131 C45       -10.5560    1.9240    1.2910 ca        1 MOL     -0.378812
    132 C46       -11.4150    0.9330   -0.8570 ca        1 MOL     -0.378812
    133 C47       -11.5160    1.1860    0.5400 ca        1 MOL      0.480456
    134 O20       -12.6580    0.8380    1.1470 oh        1 MOL     -0.522510
    135 H56        -5.2740    2.4490   -1.9040 hn        1 MOL      0.243417
    136 H57        -6.8690    2.0130    0.5040 h1        1 MOL      0.078194
    137 H58        -7.9270    2.0140   -2.3920 hc        1 MOL      0.031632
    138 H59        -7.7700    3.4740   -1.4160 hc        1 MOL      0.031632
    139 H60        -8.6750    3.1160    1.0420 ha        1 MOL      0.135445
    140 H61        -9.8900    0.8790   -2.3800 ha        1 MOL      0.135445
    141 H62       -10.7450    2.1460    2.3320 ha        1 MOL      0.175163
    142 H63       -12.1680    0.3280   -1.3430 ha        1 MOL      0.175163
    143 H64       -13.3440    0.6920    0.4840 ho        1 MOL      0.345990
    144 N13        -6.4220   -0.5750   -1.3830 n         1 MOL     -0.387661
    145 C48        -6.4070   -2.0610   -1.4200 c3        1 MOL     -0.011432
    146 C49        -5.4520   -2.5820   -0.3300 c         1 MOL      0.459624
    147 O21        -5.7620   -3.6120    0.2210 o         1 MOL     -0.531261
    148 C50        -5.9740   -2.4770   -2.8600 c3        1 MOL     -0.206879
    149 C51        -4.7160   -1.7490   -3.4120 c3        1 MOL      0.059737
    150 C52        -4.2830   -2.3400   -4.8210 c         1 MOL      0.627286
    151 O22        -3.7160   -3.4080   -4.8880 o         1 MOL     -0.699444
    152 O23        -4.6170   -1.6190   -5.7860 o         1 MOL     -0.699444
    153 H65        -5.7970   -0.0460   -1.9840 hn        1 MOL      0.329087
    154 H66        -7.3670   -2.4920   -1.1420 h1        1 MOL      0.080202
    155 H67        -6.8100   -2.2460   -3.5310 hc        1 MOL      0.085498
    156 H68        -5.7450   -3.5370   -2.7500 hc        1 MOL      0.085498
    157 H69        -3.8780   -2.0330   -2.7660 hc        1 MOL     -0.093926
    158 H70        -4.8580   -0.6710   -3.4010 hc        1 MOL     -0.093926
    159 N14        -4.3630   -1.8820    0.0880 n         1 MOL     -0.053759
    160 C53        -3.5080   -2.2590    1.2090 c3        1 MOL     -0.067749
    161 C54        -4.2120   -2.0650    2.5500 c         1 MOL      0.425420
    162 O24        -4.0190   -2.8570    3.4840 o         1 MOL     -0.558729
    163 C55        -2.1400   -1.5410    1.1180 c3        1 MOL      0.239964
    164 C56        -1.1490   -2.1620   -0.0380 c3        1 MOL     -0.221185
    165 C57         0.0400   -1.3130   -0.4340 c         1 MOL      0.598754
    166 O25         1.1670   -1.8970   -0.6210 o         1 MOL     -0.678466
    167 O26         0.0160   -0.0930   -0.5300 o         1 MOL     -0.678466
    168 H71        -4.1860   -1.0280   -0.4190 hn        1 MOL     -0.069870
    169 H72        -3.3510   -3.3390    1.1140 h1        1 MOL      0.086925
    170 H73        -1.6660   -1.5400    2.1020 hc        1 MOL     -0.032509
    171 H74        -2.3540   -0.5320    0.7590 hc        1 MOL     -0.032509
    172 H75        -1.8020   -2.1750   -0.9200 hc        1 MOL      0.102727
    173 H76        -0.8530   -3.1990    0.0910 hc        1 MOL      0.102727
    174 N15        -5.0410   -1.0440    2.6300 n         1 MOL     -0.024820
    175 C58        -5.9060   -0.7830    3.8010 c3        1 MOL     -0.191472
    176 H77        -5.6510    0.1860    4.2310 h1        1 MOL      0.078756
    177 H78        -6.9500   -0.7790    3.4890 h1        1 MOL      0.078756
    178 H79        -5.7520   -1.5620    4.5480 h1        1 MOL      0.078756
    179 H80        -4.9780   -0.5150    1.7740 hn        1 MOL      0.009665
    180 Ca1         2.4440    0.3640   -1.0900 Ca        1 MOL      1.698376
    181 O27         1.2980   -0.1740   -3.2950 oh        1 MOL     -0.845042
    182 H81         0.5120   -0.4590   -3.7540 ho        1 MOL      0.396580
    183 H82         1.9570   -0.8240   -3.5260 ho        1 MOL      0.396580
    184 O28         1.7930    2.9880   -2.4220 oh        1 MOL     -0.845042
    185 H83         2.7300    3.1630   -2.5010 ho        1 MOL      0.396580
    186 H84         1.5160    2.7550   -3.3080 ho        1 MOL      0.396580
@<TRIPOS>BOND
     1    1    2 1   
     2    1    4 1   
     3    1    5 1   
     4    1    6 1   
     5    2    3 2   
     6    2    7 1   
     7    7    8 1   
     8    7   15 1   
     9    8    9 1   
    10    8   11 1   
    11    8   16 1   
    12    9   10 2   
    13    9   19 1   
    14   11   12 1   
    15   11   17 1   
    16   11   18 1   
    17   12   13 1   
    18   12   14 1   
    19   19   20 1   
    20   19   27 1   
    21   20   21 1   
    22   20   23 1   
    23   20   28 1   
    24   21   22 2   
    25   21   38 1   
    26   23   24 1   
    27   23   25 1   
    28   23   29 1   
    29   24   26 1   
    30   24   30 1   
    31   24   31 1   
    32   25   32 1   
    33   25   33 1   
    34   25   34 1   
    35   26   35 1   
    36   26   36 1   
    37   26   37 1   
    38   38   39 1   
    39   38   46 1   
    40   39   40 1   
    41   39   42 1   
    42   39   47 1   
    43   40   41 2   
    44   40   50 1   
    45   42   43 1   
    46   42   48 1   
    47   42   49 1   
    48   43   44 1   
    49   43   45 1   
    50   50   51 1   
    51   50   54 1   
    52   51   52 1   
    53   51   55 1   
    54   51   56 1   
    55   52   53 2   
    56   52   57 1   
    57   57   58 1   
    58   57   65 1   
    59   58   59 1   
    60   58   61 1   
    61   58   66 1   
    62   59   60 2   
    63   59   69 1   
    64   61   62 1   
    65   61   67 1   
    66   61   68 1   
    67   62   63 1   
    68   62   64 1   
    69   69   70 1   
    70   69   73 1   
    71   70   71 1   
    72   70   74 1   
    73   70   75 1   
    74   71   72 2   
    75   71   76 1   
    76   76   77 1   
    77   76   85 1   
    78   77   78 1   
    79   77   80 1   
    80   77   86 1   
    81   78   79 2   
    82   78   93 1   
    83   80   81 1   
    84   80   87 1   
    85   80   88 1   
    86   81   82 1   
    87   81   89 1   
    88   81   90 1   
    89   82   83 1   
    90   82   84 2   
    91   83   91 1   
    92   83   92 1   
    93   93   94 1   
    94   93  100 1   
    95   94   95 1   
    96   94   97 1   
    97   94  101 1   
    98   95   96 2   
    99   95  109 1   
   100   97   98 1   
   101   97   99 1   
   102   97  102 1   
   103   98  103 1   
   104   98  104 1   
   105   98  105 1   
   106   99  106 1   
   107   99  107 1   
   108   99  108 1   
   109  109  110 1   
   110  109  117 1   
   111  110  111 1   
   112  110  113 1   
   113  110  118 1   
   114  111  112 2   
   115  111  123 1   
   116  113  114 1   
   117  113  119 1   
   118  113  120 1   
   119  114  115 1   
   120  114  116 2   
   121  115  121 1   
   122  115  122 1   
   123  123  124 1   
   124  123  135 1   
   125  124  125 1   
   126  124  127 1   
   127  124  136 1   
   128  125  126 2   
   129  125  144 1   
   130  127  128 1   
   131  127  137 1   
   132  127  138 1   
   133  128  129 ar  
   134  128  130 ar  
   135  129  131 ar  
   136  129  139 1   
   137  130  132 ar  
   138  130  140 1   
   139  131  133 ar  
   140  131  141 1   
   141  132  133 ar  
   142  132  142 1   
   143  133  134 1   
   144  134  143 1   
   145  144  145 1   
   146  144  153 1   
   147  145  146 1   
   148  145  148 1   
   149  145  154 1   
   150  146  147 2   
   151  146  159 1   
   152  148  149 1   
   153  148  155 1   
   154  148  156 1   
   155  149  150 1   
   156  149  157 1   
   157  149  158 1   
   158  150  151 1   
   159  150  152 1   
   160  159  160 1   
   161  159  168 1   
   162  160  161 1   
   163  160  163 1   
   164  160  169 1   
   165  161  162 2   
   166  161  174 1   
   167  163  164 1   
   168  163  170 1   
   169  163  171 1   
   170  164  165 1   
   171  164  172 1   
   172  164  173 1   
   173  165  166 1   
   174  165  167 1   
   175  174  175 1   
   176  174  179 1   
   177  175  176 1   
   178  175  177 1   
   179  175  178 1   
   180  181  182 1   
   181  181  183 1   
   182  184  185 1   
   183  184  186 1   
@<TRIPOS>SUBSTRUCTURE
     1 MOL         1 TEMP              0 ****  ****    0 ROOT
