@<TRIPOS>MOLECULE
MOL
  186   183     1     0     0
SMALL
resp


@<TRIPOS>ATOM
      1 C1          0.3970   -1.6030    6.3580 c3        1 MOL     -0.301796
      2 C2          0.8090   -1.6000    4.8430 c         1 MOL      0.836110
      3 O1         -0.0080   -2.0520    4.0340 o         1 MOL     -0.634715
      4 H1         -0.6150   -1.9940    6.4570 hc        1 MOL      0.059507
      5 H2          1.0860   -2.2320    6.9210 hc        1 MOL      0.059507
      6 H3          0.4330   -0.5850    6.7460 hc        1 MOL      0.059507
      7 N1          2.0040   -1.2530    4.4950 n         1 MOL     -0.721964
      8 C3          2.4600   -1.3010    3.0980 c3        1 MOL      0.272409
      9 C4          2.8600   -2.7900    2.7480 c         1 MOL      0.529050
     10 O2          3.6480   -3.3680    3.4940 o         1 MOL     -0.610596
     11 C5          3.7040   -0.3800    2.8850 c3        1 MOL     -0.229593
     12 C6          4.4290   -0.6080    1.5720 c         1 MOL      0.653141
     13 O3          5.6570   -0.4720    1.6620 o         1 MOL     -0.598409
     14 O4          3.7640   -0.8230    0.5160 o         1 MOL     -0.598409
     15 H4          2.5880   -0.9280    5.2460 hn        1 MOL      0.332310
     16 H5          1.6540   -0.9630    2.4420 h1        1 MOL     -0.034379
     17 H6          4.4000   -0.6480    3.6860 hc        1 MOL      0.044148
     18 H7          3.4100    0.6570    3.0550 hc        1 MOL      0.044148
     19 N2          2.3710   -3.3970    1.6780 n         1 MOL     -0.020037
     20 C7          2.6210   -4.8310    1.3030 c3        1 MOL     -0.312062
     21 C8          3.8100   -5.0420    0.2260 c         1 MOL      0.506168
     22 O5          4.2060   -6.1730   -0.0010 o         1 MOL     -0.551684
     23 C9          1.3140   -5.5310    0.9290 c3        1 MOL      0.281103
     24 C10         0.9670   -5.2540   -0.5590 c3        1 MOL     -0.205026
     25 C11         0.1650   -5.1690    1.8330 c3        1 MOL     -0.251113
     26 C12        -0.2710   -6.0530   -1.0870 c3        1 MOL     -0.334287
     27 H8          1.6710   -2.9250    1.1240 hn        1 MOL      0.085918
     28 H9          3.0690   -5.3420    2.1500 h1        1 MOL      0.110056
     29 H10         1.4460   -6.6110    0.9840 hc        1 MOL     -0.030437
     30 H11         1.7770   -5.5160   -1.2420 hc        1 MOL      0.165893
     31 H12         0.7260   -4.2130   -0.7790 hc        1 MOL      0.165893
     32 H13        -0.3310   -4.2810    1.4190 hc        1 MOL      0.055130
     33 H14        -0.5810   -5.9640    1.7810 hc        1 MOL      0.055130
     34 H15         0.5110   -4.9870    2.8540 hc        1 MOL      0.055130
     35 H16        -0.1250   -7.1280   -1.1680 hc        1 MOL      0.081889
     36 H17        -1.1410   -5.9140   -0.4500 hc        1 MOL      0.081889
     37 H18        -0.5660   -5.7280   -2.0900 hc        1 MOL      0.081889
     38 N3          4.1710   -3.9390   -0.4440 n         1 MOL     -0.329583
     39 C13         5.0340   -3.9610   -1.6360 c3        1 MOL     -0.022539
     40 C14         6.4750   -3.5410   -1.4530 c         1 MOL      0.438829
     41 O6          7.4020   -4.0400   -2.1610 o         1 MOL     -0.565744
     42 C15         4.4460   -3.1200   -2.8180 c3        1 MOL     -0.055189
     43 C16         2.9380   -3.1000   -2.8200 c         1 MOL      0.659426
     44 O7          2.4600   -2.0720   -2.3210 o         1 MOL     -0.679715
     45 O8          2.3120   -4.0870   -3.2710 o         1 MOL     -0.679715
     46 H19         3.7670   -3.0410   -0.1900 hn        1 MOL      0.176836
     47 H20         5.1990   -4.9990   -1.9190 h1        1 MOL      0.089598
     48 H21         4.7540   -3.5850   -3.7560 hc        1 MOL      0.004237
     49 H22         4.7800   -2.0820   -2.8040 hc        1 MOL      0.004237
     50 N4          6.6730   -2.6100   -0.4870 n         1 MOL     -0.059339
     51 C17         7.9290   -2.1370   -0.0470 c3        1 MOL     -0.272573
     52 C18         8.2250   -0.7910   -0.7510 c         1 MOL      0.734289
     53 O9          9.3230   -0.6050   -1.1770 o         1 MOL     -0.616674
     54 H23         5.8860   -2.1600   -0.0500 hn        1 MOL      0.092538
     55 H24         8.7700   -2.8200   -0.2180 h1        1 MOL      0.089226
     56 H25         7.7170   -1.7710    0.9590 h1        1 MOL      0.089226
     57 N5          7.2240    0.0920   -0.7200 n         1 MOL     -0.524525
     58 C19         7.4160    1.4400   -1.3230 c3        1 MOL      0.055312
     59 C20         7.1660    2.5700   -0.3160 c         1 MOL      0.340788
     60 O10         7.3390    3.7830   -0.6120 o         1 MOL     -0.524060
     61 C21         6.5500    1.5580   -2.5600 c3        1 MOL     -0.094393
     62 C22         5.0540    1.2020   -2.2350 c         1 MOL      0.632853
     63 O11         4.4200    1.7800   -1.3240 o         1 MOL     -0.697120
     64 O12         4.4320    0.3670   -2.9360 o         1 MOL     -0.697120
     65 H26         6.3400   -0.2190   -0.3340 hn        1 MOL      0.291878
     66 H27         8.3950    1.4900   -1.8080 h1        1 MOL      0.097691
     67 H28         6.8550    0.7740   -3.2500 hc        1 MOL      0.039472
     68 H29         6.7350    2.5300   -3.0190 hc        1 MOL      0.039472
     69 N6          6.7260    2.2530    0.9760 n         1 MOL     -0.158559
     70 C23         6.5950    3.2580    2.0420 c3        1 MOL     -0.148531
     71 C24         5.2710    4.0920    1.9420 c         1 MOL      0.513683
     72 O13         5.2120    5.1960    2.5000 o         1 MOL     -0.593813
     73 H30         6.5380    1.2940    1.2120 hn        1 MOL      0.171043
     74 H31         7.5110    3.8430    2.1390 h1        1 MOL      0.085388
     75 H32         6.4580    2.6380    2.9250 h1        1 MOL      0.085388
     76 N7          4.3070    3.6790    1.1340 n         1 MOL     -0.219352
     77 C25         2.9340    4.2600    0.9930 c3        1 MOL      0.089856
     78 C26         1.8530    3.1570    0.9460 c         1 MOL      0.504101
     79 O14         2.0810    2.0290    0.5210 o         1 MOL     -0.627973
     80 C27         2.8050    5.2390   -0.2600 c3        1 MOL      0.004845
     81 C28         3.4950    6.5380   -0.0480 c3        1 MOL     -0.281128
     82 C29         3.3770    7.6050   -1.1500 c         1 MOL      0.681084
     83 N8          4.2760    7.7370   -2.1010 n         1 MOL     -0.784951
     84 O15         2.4160    8.3710   -1.2420 o         1 MOL     -0.582899
     85 H33         4.4960    2.8900    0.5450 hn        1 MOL      0.184550
     86 H34         2.8050    4.7460    1.9570 h1        1 MOL      0.046436
     87 H35         1.7400    5.4320   -0.3950 hc        1 MOL      0.033489
     88 H36         3.1470    4.7730   -1.1830 hc        1 MOL      0.033489
     89 H37         4.5280    6.2960    0.1870 hc        1 MOL      0.083698
     90 H38         3.0950    6.9770    0.8800 hc        1 MOL      0.083698
     91 H39         5.0960    7.1400   -2.1180 hn        1 MOL      0.355298
     92 H40         4.2080    8.4500   -2.8170 hn        1 MOL      0.355298
     93 N9          0.6240    3.4640    1.3880 n         1 MOL     -0.482659
     94 C30        -0.4550    2.5170    1.6190 c3        1 MOL     -0.022125
     95 C31        -1.7710    2.8720    0.8660 c         1 MOL      0.388021
     96 O16        -2.3730    3.9320    1.0930 o         1 MOL     -0.546732
     97 C32        -0.6820    2.4670    3.1140 c3        1 MOL      0.307600
     98 C33        -1.6160    1.3360    3.5440 c3        1 MOL     -0.346986
     99 C34         0.5880    2.3330    3.9490 c3        1 MOL     -0.346986
    100 H41         0.4550    4.4550    1.5070 hn        1 MOL      0.292440
    101 H42        -0.1460    1.5010    1.3470 h1        1 MOL      0.252749
    102 H43        -1.1800    3.3900    3.4410 hc        1 MOL     -0.041538
    103 H44        -1.1580    0.3600    3.4300 hc        1 MOL      0.071635
    104 H45        -1.7250    1.4540    4.6180 hc        1 MOL      0.071635
    105 H46        -2.6230    1.3980    3.1360 hc        1 MOL      0.071635
    106 H47         0.3820    2.4460    5.0180 hc        1 MOL      0.071635
    107 H48         1.0510    1.3900    3.6760 hc        1 MOL      0.071635
    108 H49         1.3400    3.0630    3.6570 hc        1 MOL      0.071635
    109 N10        -2.0110    2.1010   -0.1850 n         1 MOL     -0.142293
    110 C35        -3.2010    2.1850   -1.0330 c3        1 MOL     -0.037727
    111 C36        -4.4540    1.8190   -0.2450 c         1 MOL      0.362777
    112 O17        -4.3420    1.0410    0.7500 o         1 MOL     -0.325636
    113 C37        -2.9790    1.3640   -2.3680 c3        1 MOL     -0.540855
    114 C38        -4.0340    1.5860   -3.4700 c         1 MOL      0.638196
    115 N11        -3.5340    2.2770   -4.5020 n         1 MOL     -0.719525
    116 O18        -5.1590    1.1440   -3.3790 o         1 MOL     -0.501469
    117 H50        -1.2200    1.5100   -0.3920 hn        1 MOL      0.152995
    118 H51        -3.2680    3.2530   -1.2560 h1        1 MOL      0.080486
    119 H52        -2.8830    0.3210   -2.0830 hc        1 MOL      0.215778
    120 H53        -1.9760    1.5310   -2.7710 hc        1 MOL      0.215778
    121 H54        -2.6680    2.7720   -4.3430 hn        1 MOL      0.345560
    122 H55        -4.1460    2.5050   -5.2630 hn        1 MOL      0.345560
    123 N12        -5.5840    2.3780   -0.6070 n         1 MOL     -0.480002
    124 C39        -6.8890    1.8570   -0.0890 c3        1 MOL      0.243360
    125 C40        -7.0440    0.3290   -0.0940 c         1 MOL      0.488432
    126 O19        -7.6880   -0.1550    0.8680 o         1 MOL     -0.528902
    127 C41        -8.0170    2.5960   -0.8810 c3        1 MOL     -0.113195
    128 C42        -9.4100    2.1080   -0.4230 ca        1 MOL     -0.047358
    129 C43        -9.8310    2.3500    0.8720 ca        1 MOL     -0.127262
    130 C44       -10.2340    1.3110   -1.2270 ca        1 MOL     -0.127262
    131 C45       -11.0620    1.7970    1.3310 ca        1 MOL     -0.259860
    132 C46       -11.4520    0.8060   -0.7610 ca        1 MOL     -0.259860
    133 C47       -11.8950    1.0030    0.5290 ca        1 MOL      0.393374
    134 O20       -13.1550    0.7140    0.9510 oh        1 MOL     -0.538363
    135 H56        -5.5960    3.0950   -1.3110 hn        1 MOL      0.298057
    136 H57        -7.1110    2.1710    0.9290 h1        1 MOL      0.041233
    137 H58        -7.9220    2.5150   -1.9660 hc        1 MOL      0.042587
    138 H59        -7.8600    3.6250   -0.5600 hc        1 MOL      0.042587
    139 H60        -9.1620    2.9100    1.5110 ha        1 MOL      0.132792
    140 H61        -9.9010    1.1010   -2.2330 ha        1 MOL      0.132792
    141 H62       -11.3310    1.8900    2.3750 ha        1 MOL      0.123507
    142 H63       -12.0210    0.2900   -1.5210 ha        1 MOL      0.123507
    143 H64       -13.5960    0.0210    0.4450 ho        1 MOL      0.374249
    144 N13        -6.4720   -0.3700   -1.0610 n         1 MOL     -0.407176
    145 C48        -6.4260   -1.8510   -1.1120 c3        1 MOL      0.085397
    146 C49        -5.5890   -2.4370    0.0170 c         1 MOL      0.346300
    147 O21        -6.0760   -3.3820    0.5630 o         1 MOL     -0.511294
    148 C50        -6.0120   -2.3500   -2.4980 c3        1 MOL      0.013802
    149 C51        -4.5710   -2.2680   -2.9190 c3        1 MOL      0.053275
    150 C52        -4.3230   -2.7220   -4.4440 c         1 MOL      0.562258
    151 O22        -4.0400   -1.8080   -5.3130 o         1 MOL     -0.690389
    152 O23        -4.2730   -3.9610   -4.6440 o         1 MOL     -0.690389
    153 H65        -5.9090    0.0770   -1.7700 hn        1 MOL      0.269042
    154 H66        -7.4230   -2.2900   -1.0620 h1        1 MOL      0.043280
    155 H67        -6.4950   -1.7020   -3.2190 hc        1 MOL     -0.015952
    156 H68        -6.3420   -3.3800   -2.6450 hc        1 MOL     -0.015952
    157 H69        -4.0180   -2.9260   -2.2530 hc        1 MOL     -0.037198
    158 H70        -4.0770   -1.3050   -2.7610 hc        1 MOL     -0.037198
    159 N14        -4.3990   -1.9050    0.3250 n         1 MOL     -0.053586
    160 C53        -3.5220   -2.2820    1.4570 c3        1 MOL     -0.329793
    161 C54        -4.2390   -2.0680    2.7760 c         1 MOL      0.555484
    162 O24        -4.2710   -2.8470    3.6920 o         1 MOL     -0.552557
    163 C55        -2.2340   -1.4970    1.1590 c3        1 MOL     -0.022033
    164 C56        -1.4940   -1.8730   -0.1650 c3        1 MOL     -0.001138
    165 C57        -0.1930   -1.0860   -0.3620 c         1 MOL      0.427995
    166 O25         0.8340   -1.4570    0.1890 o         1 MOL     -0.610464
    167 O26        -0.2560    0.0110   -0.9930 o         1 MOL     -0.610464
    168 H71        -4.0300   -1.1810   -0.2760 hn        1 MOL      0.181800
    169 H72        -3.3860   -3.3620    1.4290 h1        1 MOL      0.147562
    170 H73        -1.5670   -1.7980    1.9590 hc        1 MOL      0.100997
    171 H74        -2.2870   -0.4100    1.2680 hc        1 MOL      0.100997
    172 H75        -2.1420   -1.7450   -1.0330 hc        1 MOL      0.017990
    173 H76        -1.3140   -2.9520   -0.1380 hc        1 MOL      0.017990
    174 N15        -4.9640   -0.9240    2.8740 n         1 MOL     -0.046172
    175 C58        -5.7300   -0.4490    4.0150 c3        1 MOL     -0.277866
    176 H77        -6.7210   -0.9050    4.0010 h1        1 MOL      0.092197
    177 H78        -5.2180   -0.7230    4.9370 h1        1 MOL      0.092197
    178 H79        -5.8290    0.6350    3.9620 h1        1 MOL      0.092197
    179 H80        -4.6910   -0.2240    2.1920 hn        1 MOL      0.014086
    180 Ca1         2.3170    0.2490   -1.3550 Ca        1 MOL      1.673628
    181 O27         0.8820   -0.1180   -3.6250 oh        1 MOL     -0.825634
    182 H81         1.1810   -0.9910   -3.8570 ho        1 MOL      0.397901
    183 H82         0.0090   -0.0430   -4.0120 ho        1 MOL      0.397901
    184 O28         1.9470    2.7190   -2.3470 oh        1 MOL     -0.825634
    185 H83         1.4410    3.2050   -2.9930 ho        1 MOL      0.397901
    186 H84         2.7550    3.2260   -2.2270 ho        1 MOL      0.397901
@<TRIPOS>BOND
     1    1    2 1   
     2    1    4 1   
     3    1    5 1   
     4    1    6 1   
     5    2    3 2   
     6    2    7 1   
     7    7    8 1   
     8    7   15 1   
     9    8    9 1   
    10    8   11 1   
    11    8   16 1   
    12    9   10 2   
    13    9   19 1   
    14   11   12 1   
    15   11   17 1   
    16   11   18 1   
    17   12   13 1   
    18   12   14 1   
    19   19   20 1   
    20   19   27 1   
    21   20   21 1   
    22   20   23 1   
    23   20   28 1   
    24   21   22 2   
    25   21   38 1   
    26   23   24 1   
    27   23   25 1   
    28   23   29 1   
    29   24   26 1   
    30   24   30 1   
    31   24   31 1   
    32   25   32 1   
    33   25   33 1   
    34   25   34 1   
    35   26   35 1   
    36   26   36 1   
    37   26   37 1   
    38   38   39 1   
    39   38   46 1   
    40   39   40 1   
    41   39   42 1   
    42   39   47 1   
    43   40   41 2   
    44   40   50 1   
    45   42   43 1   
    46   42   48 1   
    47   42   49 1   
    48   43   44 1   
    49   43   45 1   
    50   50   51 1   
    51   50   54 1   
    52   51   52 1   
    53   51   55 1   
    54   51   56 1   
    55   52   53 2   
    56   52   57 1   
    57   57   58 1   
    58   57   65 1   
    59   58   59 1   
    60   58   61 1   
    61   58   66 1   
    62   59   60 2   
    63   59   69 1   
    64   61   62 1   
    65   61   67 1   
    66   61   68 1   
    67   62   63 1   
    68   62   64 1   
    69   69   70 1   
    70   69   73 1   
    71   70   71 1   
    72   70   74 1   
    73   70   75 1   
    74   71   72 2   
    75   71   76 1   
    76   76   77 1   
    77   76   85 1   
    78   77   78 1   
    79   77   80 1   
    80   77   86 1   
    81   78   79 2   
    82   78   93 1   
    83   80   81 1   
    84   80   87 1   
    85   80   88 1   
    86   81   82 1   
    87   81   89 1   
    88   81   90 1   
    89   82   83 1   
    90   82   84 2   
    91   83   91 1   
    92   83   92 1   
    93   93   94 1   
    94   93  100 1   
    95   94   95 1   
    96   94   97 1   
    97   94  101 1   
    98   95   96 2   
    99   95  109 1   
   100   97   98 1   
   101   97   99 1   
   102   97  102 1   
   103   98  103 1   
   104   98  104 1   
   105   98  105 1   
   106   99  106 1   
   107   99  107 1   
   108   99  108 1   
   109  109  110 1   
   110  109  117 1   
   111  110  111 1   
   112  110  113 1   
   113  110  118 1   
   114  111  112 2   
   115  111  123 1   
   116  113  114 1   
   117  113  119 1   
   118  113  120 1   
   119  114  115 1   
   120  114  116 2   
   121  115  121 1   
   122  115  122 1   
   123  123  124 1   
   124  123  135 1   
   125  124  125 1   
   126  124  127 1   
   127  124  136 1   
   128  125  126 2   
   129  125  144 1   
   130  127  128 1   
   131  127  137 1   
   132  127  138 1   
   133  128  129 ar  
   134  128  130 ar  
   135  129  131 ar  
   136  129  139 1   
   137  130  132 ar  
   138  130  140 1   
   139  131  133 ar  
   140  131  141 1   
   141  132  133 ar  
   142  132  142 1   
   143  133  134 1   
   144  134  143 1   
   145  144  145 1   
   146  144  153 1   
   147  145  146 1   
   148  145  148 1   
   149  145  154 1   
   150  146  147 2   
   151  146  159 1   
   152  148  149 1   
   153  148  155 1   
   154  148  156 1   
   155  149  150 1   
   156  149  157 1   
   157  149  158 1   
   158  150  151 1   
   159  150  152 1   
   160  159  160 1   
   161  159  168 1   
   162  160  161 1   
   163  160  163 1   
   164  160  169 1   
   165  161  162 2   
   166  161  174 1   
   167  163  164 1   
   168  163  170 1   
   169  163  171 1   
   170  164  165 1   
   171  164  172 1   
   172  164  173 1   
   173  165  166 1   
   174  165  167 1   
   175  174  175 1   
   176  174  179 1   
   177  175  176 1   
   178  175  177 1   
   179  175  178 1   
   180  181  182 1   
   181  181  183 1   
   182  184  185 1   
   183  184  186 1   
@<TRIPOS>SUBSTRUCTURE
     1 MOL         1 TEMP              0 ****  ****    0 ROOT
