@<TRIPOS>MOLECULE
MOL
  179   176     1     0     0
SMALL
resp


@<TRIPOS>ATOM
      1 C1          0.6660    4.4070    5.1480 c3        1 MOL     -0.355715
      2 C2          0.3840    3.7650    3.7780 c         1 MOL      0.592650
      3 O1          1.2220    3.8710    2.8560 o         1 MOL     -0.576649
      4 H1          0.2240    5.4030    5.1800 hc        1 MOL      0.094945
      5 H2          0.2310    3.7920    5.9350 hc        1 MOL      0.094945
      6 H3          1.7430    4.4840    5.2990 hc        1 MOL      0.094945
      7 N1         -0.8340    3.2730    3.5640 n         1 MOL     -0.508974
      8 C3         -1.3150    2.7970    2.2130 c3        1 MOL      0.098935
      9 C4         -1.9030    3.9990    1.4180 c         1 MOL      0.414921
     10 O2         -3.1060    4.2610    1.6250 o         1 MOL     -0.478387
     11 C5         -2.3280    1.6570    2.2300 c3        1 MOL      0.039838
     12 C6         -2.6280    1.1200    0.7630 c         1 MOL      0.352520
     13 O3         -1.9330    1.5370   -0.1840 o         1 MOL     -0.529028
     14 O4         -3.5410    0.2790    0.5620 o         1 MOL     -0.529028
     15 H4         -1.4320    3.2060    4.3780 hn        1 MOL      0.316319
     16 H5         -0.3830    2.4440    1.7680 h1        1 MOL      0.021204
     17 H6         -3.2450    2.0060    2.7130 hc        1 MOL      0.012759
     18 H7         -1.9990    0.8380    2.8810 hc        1 MOL      0.012759
     19 N2         -1.0510    4.6710    0.6050 n         1 MOL     -0.365386
     20 C7         -1.4760    5.9840    0.0190 c3        1 MOL      0.038071
     21 C8         -2.4130    5.8210   -1.2020 c         1 MOL      0.447761
     22 O5         -3.0480    6.7930   -1.6220 o         1 MOL     -0.565122
     23 C9         -0.3250    6.9590   -0.1470 c3        1 MOL     -0.121549
     24 C10         0.4600    7.1580    1.1660 c3        1 MOL      0.081485
     25 C11         1.5750    8.2520    0.9930 c3        1 MOL      0.103509
     26 C12         2.4940    8.4490    2.1830 c3        1 MOL     -0.164638
     27 N3          1.7840    9.0370    3.3220 n4        1 MOL     -0.350925
     28 H8         -0.1130    4.2910    0.5760 hn        1 MOL      0.340903
     29 H9         -2.0720    6.4860    0.7760 h1        1 MOL      0.085207
     30 H10        -0.6500    7.9460   -0.4790 hc        1 MOL      0.060216
     31 H11         0.2870    6.5460   -0.9530 hc        1 MOL      0.060216
     32 H12         1.0070    6.2550    1.4220 hc        1 MOL     -0.012080
     33 H13        -0.3040    7.4260    1.8870 hc        1 MOL     -0.012080
     34 H14         1.1220    9.2190    0.7650 hc        1 MOL      0.004728
     35 H15         2.1690    8.0360    0.1040 hc        1 MOL      0.004728
     36 H16         3.3020    9.1010    1.8850 hx        1 MOL      0.154617
     37 H17         2.9050    7.4490    2.3630 hx        1 MOL      0.154617
     38 H18         1.2370    9.8390    3.0390 hn        1 MOL      0.327532
     39 H19         1.1570    8.4210    3.8170 hn        1 MOL      0.327532
     40 H20         2.3970    9.3450    4.0650 hn        1 MOL      0.327532
     41 N4         -2.6380    4.6080   -1.6980 n         1 MOL     -0.247677
     42 C13        -3.7300    4.4200   -2.7350 c3        1 MOL      0.113505
     43 C14        -4.9280    3.6490   -2.0570 c         1 MOL      0.316648
     44 O6         -5.9500    3.5350   -2.7480 o         1 MOL     -0.500145
     45 C15        -3.2450    3.6290   -3.9760 c3        1 MOL     -0.306529
     46 C16        -2.5470    2.3890   -3.3790 c         1 MOL      0.811845
     47 O7         -3.1870    1.3230   -3.2020 o         1 MOL     -0.734015
     48 O8         -1.3740    2.2980   -3.0280 o         1 MOL     -0.734015
     49 H21        -2.1520    3.7960   -1.3600 hn        1 MOL      0.142483
     50 H22        -4.0900    5.3720   -3.1210 h1        1 MOL      0.115860
     51 H23        -2.5020    4.1750   -4.5530 hc        1 MOL      0.089713
     52 H24        -4.1210    3.3860   -4.5800 hc        1 MOL      0.089713
     53 N5         -4.8050    3.0620   -0.8590 n         1 MOL      0.133294
     54 C17        -5.9050    2.5770   -0.0490 c3        1 MOL     -0.339327
     55 C18        -6.5760    1.3420   -0.5460 c         1 MOL      0.488792
     56 O9         -7.7730    1.0130   -0.3160 o         1 MOL     -0.560075
     57 H25        -3.8680    3.0030   -0.4930 hn        1 MOL     -0.106548
     58 H26        -6.6460    3.3800   -0.1030 h1        1 MOL      0.145331
     59 H27        -5.4290    2.5200    0.9290 h1        1 MOL      0.145331
     60 N6         -5.6860    0.5210   -1.1270 n         1 MOL     -0.027085
     61 C19        -6.1620   -0.8230   -1.4580 c3        1 MOL     -0.113707
     62 C20        -6.1750   -1.8210   -0.2820 c         1 MOL      0.342208
     63 O10        -6.6160   -2.9890   -0.4890 o         1 MOL     -0.468507
     64 C21        -5.4370   -1.3610   -2.7890 c3        1 MOL     -0.057608
     65 C22        -4.2770   -2.2920   -2.4860 c         1 MOL      0.484361
     66 N7         -4.3640   -3.5620   -2.8040 n         1 MOL     -0.661313
     67 O11        -3.2240   -1.8460   -1.9950 o         1 MOL     -0.572122
     68 H28        -4.7290    0.8090   -1.2120 hn        1 MOL      0.002424
     69 H29        -7.2320   -0.8020   -1.6580 h1        1 MOL      0.138792
     70 H30        -5.1070   -0.5370   -3.4230 hc        1 MOL      0.048444
     71 H31        -6.1550   -1.9470   -3.3580 hc        1 MOL      0.048444
     72 H32        -5.2590   -3.9070   -3.1090 hn        1 MOL      0.355021
     73 H33        -3.5470   -4.1070   -2.5560 hn        1 MOL      0.355021
     74 N8         -5.8650   -1.2930    0.9140 n         1 MOL     -0.130523
     75 C23        -5.8670   -2.1110    2.1320 c3        1 MOL     -0.469114
     76 C24        -4.5090   -2.7520    2.3820 c         1 MOL      0.593020
     77 O12        -4.2830   -3.4650    3.3740 o         1 MOL     -0.566756
     78 H34        -5.3490   -0.4200    0.9360 hn        1 MOL      0.246458
     79 H35        -6.5090   -2.9810    2.0780 h1        1 MOL      0.207542
     80 H36        -6.1490   -1.5140    2.9980 h1        1 MOL      0.207542
     81 N9         -3.5310   -2.6490    1.4440 n         1 MOL     -0.531876
     82 C25        -2.2000   -3.3540    1.5050 c3        1 MOL      0.621197
     83 C26        -1.0530   -2.4350    1.0600 c         1 MOL     -0.008344
     84 O13        -1.2710   -1.5020    0.2800 o         1 MOL     -0.388438
     85 C27        -2.2630   -4.6630    0.6900 c3        1 MOL     -0.222672
     86 C28        -3.3200   -5.6990    1.1280 ca        1 MOL      0.132805
     87 C29        -4.6760   -5.5150    0.7990 ca        1 MOL     -0.194902
     88 C30        -2.9340   -6.9440    1.7150 ca        1 MOL     -0.194902
     89 C31        -5.6740   -6.4690    1.1300 ca        1 MOL     -0.216860
     90 C32        -3.9240   -7.9000    2.0400 ca        1 MOL     -0.216860
     91 C33        -5.3140   -7.6700    1.8050 ca        1 MOL      0.289016
     92 O14        -6.3140   -8.5040    2.2910 oh        1 MOL     -0.474327
     93 H37        -3.6530   -1.9580    0.7100 hn        1 MOL      0.356420
     94 H38        -1.9660   -3.6230    2.5430 h1        1 MOL     -0.060285
     95 H39        -1.2160   -4.9700    0.6040 hc        1 MOL      0.043728
     96 H40        -2.4450   -4.3430   -0.3410 hc        1 MOL      0.043728
     97 H41        -4.9960   -4.5790    0.3690 ha        1 MOL      0.117432
     98 H42        -1.8880   -7.1230    1.9340 ha        1 MOL      0.117432
     99 H43        -6.7370   -6.3390    0.9660 ha        1 MOL      0.129760
    100 H44        -3.6730   -8.7950    2.5880 ha        1 MOL      0.129760
    101 H45        -6.0120   -9.2060    2.8810 ho        1 MOL      0.355351
    102 N10         0.1840   -2.7810    1.4030 n         1 MOL     -0.146707
    103 C34         1.4120   -2.1410    0.9950 c3        1 MOL     -0.028204
    104 C35         2.3990   -3.1970    0.7460 c         1 MOL      0.273428
    105 O15         2.4180   -4.3050    1.2840 o         1 MOL     -0.524765
    106 C36         1.9540   -1.1540    2.0620 c3        1 MOL     -0.037592
    107 C37         2.4510   -1.7380    3.3860 c3        1 MOL     -0.067429
    108 C38         0.9080   -0.0870    2.2320 c3        1 MOL     -0.453913
    109 C39         2.7370   -0.7770    4.4370 c3        1 MOL     -0.175870
    110 H46         0.3570   -3.5420    2.0520 hn        1 MOL      0.236461
    111 H47         1.1550   -1.5350    0.1350 h1        1 MOL      0.143584
    112 H48         2.8380   -0.6560    1.6490 hc        1 MOL      0.015226
    113 H49         3.3820   -2.2350    3.1210 hc        1 MOL      0.064779
    114 H50         1.6510   -2.3720    3.7560 hc        1 MOL      0.064779
    115 H51         0.6250    0.3220    1.2630 hc        1 MOL      0.161759
    116 H52         0.0360   -0.3760    2.8150 hc        1 MOL      0.161759
    117 H53         1.2910    0.7510    2.8200 hc        1 MOL      0.161759
    118 H54         3.4610   -0.0470    4.0620 hc        1 MOL      0.047184
    119 H55         1.8530   -0.2790    4.8310 hc        1 MOL      0.047184
    120 H56         3.2850   -1.3710    5.1610 hc        1 MOL      0.047184
    121 N11         3.1910   -2.8770   -0.2860 n         1 MOL      0.043988
    122 C40         4.2500   -3.7500   -0.7990 c3        1 MOL      0.072145
    123 C41         5.5480   -3.2270   -0.1520 c         1 MOL      0.346764
    124 O16         5.7150   -2.1160    0.4090 o         1 MOL     -0.316668
    125 C42         4.2000   -3.4570   -2.3040 c3        1 MOL     -0.180781
    126 O17         4.9560   -2.3070   -2.6300 oh        1 MOL     -0.357365
    127 H57         2.9000   -2.0670   -0.8180 hn        1 MOL     -0.042420
    128 H58         4.1660   -4.8140   -0.5910 h1        1 MOL      0.073116
    129 H59         3.1450   -3.4180   -2.5870 h1        1 MOL      0.101869
    130 H60         4.6940   -4.2590   -2.8430 h1        1 MOL      0.101869
    131 H61         4.7830   -2.1420   -3.5650 ho        1 MOL      0.375118
    132 N12         6.6100   -4.0220   -0.3940 n         1 MOL     -0.407037
    133 C43         7.9660   -3.7410    0.0510 c3        1 MOL      0.134667
    134 C44         8.4910   -2.4350   -0.5320 c         1 MOL      0.404820
    135 O18         9.4860   -1.9390    0.0210 o         1 MOL     -0.539321
    136 C45         8.7830   -4.9270   -0.3290 c3        1 MOL     -0.204211
    137 H62         6.4800   -4.8660   -0.9310 hn        1 MOL      0.278426
    138 H63         7.9970   -3.6080    1.1330 h1        1 MOL      0.085607
    139 H64         8.3680   -5.9030   -0.0910 hc        1 MOL      0.069365
    140 H65         9.1680   -4.8710   -1.3380 hc        1 MOL      0.069365
    141 H66         9.6880   -4.8830    0.2740 hc        1 MOL      0.069365
    142 N13         7.9490   -1.7770   -1.5630 n         1 MOL     -0.115703
    143 C46         8.3480   -0.4790   -2.0930 c3        1 MOL      0.029208
    144 C47         7.4010    0.7100   -1.7040 c         1 MOL      0.383743
    145 O19         7.9130    1.8040   -1.4350 o         1 MOL     -0.488999
    146 C48         8.4610   -0.5810   -3.6120 c3        1 MOL     -0.265425
    147 H67         7.1790   -2.2020   -2.0710 hn        1 MOL      0.073560
    148 H68         9.2060   -0.1830   -1.4930 h1        1 MOL      0.107351
    149 H69         7.4860   -0.8190   -4.0300 hc        1 MOL      0.075318
    150 H70         8.6810    0.3810   -4.0710 hc        1 MOL      0.075318
    151 H71         9.1660   -1.3520   -3.9140 hc        1 MOL      0.075318
    152 N14         6.1820    0.3510   -1.2130 n         1 MOL     -0.094822
    153 C49         5.4060    1.2920   -0.4730 c3        1 MOL     -0.083428
    154 C50         5.7940    1.4470    1.0110 c         1 MOL      0.344716
    155 O20         5.8830    2.6140    1.4880 o         1 MOL     -0.540791
    156 C51         3.9270    0.8540   -0.4770 c3        1 MOL      0.096145
    157 C52         3.3890    0.7660   -1.9050 c3        1 MOL     -0.195456
    158 C53         1.9320    0.2730   -1.8830 c         1 MOL      0.938234
    159 O21         1.5350   -0.8390   -2.3120 o         1 MOL     -0.821965
    160 O22         1.0800    0.8840   -1.2720 o         1 MOL     -0.821965
    161 H72         5.7520   -0.5560   -1.3280 hn        1 MOL      0.063297
    162 H73         5.4280    2.2990   -0.8690 h1        1 MOL      0.089483
    163 H74         3.3070    1.6080    0.0090 hc        1 MOL      0.059615
    164 H75         3.8410   -0.1420   -0.0330 hc        1 MOL      0.059615
    165 H76         4.0320    0.1520   -2.5250 hc        1 MOL      0.008419
    166 H77         3.3290    1.7570   -2.3550 hc        1 MOL      0.008419
    167 N15         6.2780    0.3880    1.6530 n         1 MOL      0.055921
    168 C54         6.7400    0.5310    3.0690 c3        1 MOL     -0.323401
    169 H78         6.2350    1.3790    3.5310 h1        1 MOL      0.117015
    170 H79         6.5020   -0.3780    3.6230 h1        1 MOL      0.117015
    171 H80         7.8170    0.6960    3.0860 h1        1 MOL      0.117015
    172 H81         6.2370   -0.5130    1.1790 hn        1 MOL      0.020462
    173 Ca1        -1.2890   -0.0460   -2.0420 Ca        1 MOL      1.778782
    174 O23        -0.5100   -2.5150   -2.4540 oh        1 MOL     -0.882868
    175 H82         0.3900   -2.1970   -2.5050 ho        1 MOL      0.426177
    176 H83        -0.4320   -3.4080   -2.1030 ho        1 MOL      0.426177
    177 O24        -0.4410   -0.1020   -4.5900 oh        1 MOL     -0.882868
    178 H84        -0.2910    0.4000   -5.3900 ho        1 MOL      0.426177
    179 H85        -0.3130   -1.0160   -4.8530 ho        1 MOL      0.426177
@<TRIPOS>BOND
     1    1    2 1   
     2    1    4 1   
     3    1    5 1   
     4    1    6 1   
     5    2    3 2   
     6    2    7 1   
     7    7    8 1   
     8    7   15 1   
     9    8    9 1   
    10    8   11 1   
    11    8   16 1   
    12    9   10 2   
    13    9   19 1   
    14   11   12 1   
    15   11   17 1   
    16   11   18 1   
    17   12   13 1   
    18   12   14 1   
    19   19   20 1   
    20   19   28 1   
    21   20   21 1   
    22   20   23 1   
    23   20   29 1   
    24   21   22 2   
    25   21   41 1   
    26   23   24 1   
    27   23   30 1   
    28   23   31 1   
    29   24   25 1   
    30   24   32 1   
    31   24   33 1   
    32   25   26 1   
    33   25   34 1   
    34   25   35 1   
    35   26   27 1   
    36   26   36 1   
    37   26   37 1   
    38   27   38 1   
    39   27   39 1   
    40   27   40 1   
    41   41   42 1   
    42   41   49 1   
    43   42   43 1   
    44   42   45 1   
    45   42   50 1   
    46   43   44 2   
    47   43   53 1   
    48   45   46 1   
    49   45   51 1   
    50   45   52 1   
    51   46   47 1   
    52   46   48 1   
    53   53   54 1   
    54   53   57 1   
    55   54   55 1   
    56   54   58 1   
    57   54   59 1   
    58   55   56 2   
    59   55   60 1   
    60   60   61 1   
    61   60   68 1   
    62   61   62 1   
    63   61   64 1   
    64   61   69 1   
    65   62   63 2   
    66   62   74 1   
    67   64   65 1   
    68   64   70 1   
    69   64   71 1   
    70   65   66 1   
    71   65   67 2   
    72   66   72 1   
    73   66   73 1   
    74   74   75 1   
    75   74   78 1   
    76   75   76 1   
    77   75   79 1   
    78   75   80 1   
    79   76   77 2   
    80   76   81 1   
    81   81   82 1   
    82   81   93 1   
    83   82   83 1   
    84   82   85 1   
    85   82   94 1   
    86   83   84 2   
    87   83  102 1   
    88   85   86 1   
    89   85   95 1   
    90   85   96 1   
    91   86   87 ar  
    92   86   88 ar  
    93   87   89 ar  
    94   87   97 1   
    95   88   90 ar  
    96   88   98 1   
    97   89   91 ar  
    98   89   99 1   
    99   90   91 ar  
   100   90  100 1   
   101   91   92 1   
   102   92  101 1   
   103  102  103 1   
   104  102  110 1   
   105  103  104 1   
   106  103  106 1   
   107  103  111 1   
   108  104  105 2   
   109  104  121 1   
   110  106  107 1   
   111  106  108 1   
   112  106  112 1   
   113  107  109 1   
   114  107  113 1   
   115  107  114 1   
   116  108  115 1   
   117  108  116 1   
   118  108  117 1   
   119  109  118 1   
   120  109  119 1   
   121  109  120 1   
   122  121  122 1   
   123  121  127 1   
   124  122  123 1   
   125  122  125 1   
   126  122  128 1   
   127  123  124 2   
   128  123  132 1   
   129  125  126 1   
   130  125  129 1   
   131  125  130 1   
   132  126  131 1   
   133  132  133 1   
   134  132  137 1   
   135  133  134 1   
   136  133  136 1   
   137  133  138 1   
   138  134  135 2   
   139  134  142 1   
   140  136  139 1   
   141  136  140 1   
   142  136  141 1   
   143  142  143 1   
   144  142  147 1   
   145  143  144 1   
   146  143  146 1   
   147  143  148 1   
   148  144  145 2   
   149  144  152 1   
   150  146  149 1   
   151  146  150 1   
   152  146  151 1   
   153  152  153 1   
   154  152  161 1   
   155  153  154 1   
   156  153  156 1   
   157  153  162 1   
   158  154  155 2   
   159  154  167 1   
   160  156  157 1   
   161  156  163 1   
   162  156  164 1   
   163  157  158 1   
   164  157  165 1   
   165  157  166 1   
   166  158  159 1   
   167  158  160 1   
   168  167  168 1   
   169  167  172 1   
   170  168  169 1   
   171  168  170 1   
   172  168  171 1   
   173  174  175 1   
   174  174  176 1   
   175  177  178 1   
   176  177  179 1   
@<TRIPOS>SUBSTRUCTURE
     1 MOL         1 TEMP              0 ****  ****    0 ROOT
