@<TRIPOS>MOLECULE
MOL
  175   173     1     0     0
SMALL
resp


@<TRIPOS>ATOM
      1 C1          0.9250    4.1840    5.3600 c3        1 MOL     -0.355508
      2 C2          0.2140    4.0470    3.9900 c         1 MOL      0.640666
      3 O1          0.8300    4.2120    2.9330 o         1 MOL     -0.507844
      4 H1          1.1940    5.2280    5.5250 hc        1 MOL      0.089567
      5 H2          0.2540    3.8520    6.1530 hc        1 MOL      0.089567
      6 H3          1.8260    3.5710    5.3650 hc        1 MOL      0.089567
      7 N1         -1.0990    3.7670    3.9960 n         1 MOL     -0.568972
      8 C3         -1.8310    3.5080    2.7710 c3        1 MOL      0.161248
      9 C4         -1.9470    4.6380    1.7020 c         1 MOL      0.583449
     10 O2         -2.0130    5.8060    2.1040 o         1 MOL     -0.589922
     11 C5         -3.2650    3.0370    3.0830 c3        1 MOL     -0.437797
     12 C6         -3.9750    2.4300    1.9660 c         1 MOL      0.828572
     13 O3         -5.2130    2.4200    2.1100 o         1 MOL     -0.679783
     14 O4         -3.4070    1.9770    0.9170 o         1 MOL     -0.679783
     15 H4         -1.5500    3.8100    4.8950 hn        1 MOL      0.328435
     16 H5         -1.3710    2.6350    2.3050 h1        1 MOL      0.018335
     17 H6         -3.8170    3.8970    3.4530 hc        1 MOL      0.097875
     18 H7         -3.1830    2.2990    3.8800 hc        1 MOL      0.097875
     19 N2         -1.9290    4.3320    0.4160 n         1 MOL     -0.532665
     20 C7         -2.1490    5.2780   -0.7320 c3        1 MOL      0.353720
     21 C8         -3.2450    4.8750   -1.7340 c         1 MOL      0.380513
     22 O5         -3.4230    5.6640   -2.7510 o         1 MOL     -0.576888
     23 C9         -0.8040    5.4090   -1.4660 c3        1 MOL     -0.284665
     24 H8         -1.7340    3.3570    0.2370 hn        1 MOL      0.359619
     25 H9         -2.4960    6.2370   -0.3510 h1        1 MOL      0.003399
     26 H10        -0.5490    4.4360   -1.8860 hc        1 MOL      0.072112
     27 H11        -0.7880    6.1860   -2.2130 hc        1 MOL      0.072112
     28 H12        -0.0850    5.7170   -0.7070 hc        1 MOL      0.072112
     29 N3         -3.9870    3.8030   -1.5780 n         1 MOL     -0.256350
     30 C10        -4.9340    3.3750   -2.6330 c3        1 MOL     -0.039747
     31 C11        -6.1890    2.6000   -2.1880 c         1 MOL      0.469442
     32 O6         -7.1430    2.4920   -2.9530 o         1 MOL     -0.530975
     33 C12        -4.2540    2.5060   -3.7100 c3        1 MOL     -0.019741
     34 C13        -3.2330    1.5560   -3.2550 c         1 MOL      0.733254
     35 O7         -2.3090    1.2380   -4.0330 o         1 MOL     -0.681528
     36 O8         -3.4170    0.9660   -2.1290 o         1 MOL     -0.681528
     37 H13        -3.7940    3.2050   -0.7880 hn        1 MOL      0.117525
     38 H14        -5.3950    4.2460   -3.1040 h1        1 MOL      0.100761
     39 H15        -3.7760    3.0730   -4.5090 hc        1 MOL     -0.000087
     40 H16        -4.9770    1.8760   -4.2230 hc        1 MOL     -0.000087
     41 N4         -6.3100    2.2300   -0.8760 n         1 MOL     -0.322165
     42 C14        -7.3930    1.4250   -0.3610 c3        1 MOL      0.026718
     43 C15        -7.5030    0.0430   -1.0200 c         1 MOL      0.397458
     44 O9         -8.5920   -0.5220   -0.9900 o         1 MOL     -0.580952
     45 H17        -5.6730    2.5180   -0.1460 hn        1 MOL      0.222640
     46 H18        -8.3710    1.9060   -0.3880 h1        1 MOL      0.046042
     47 H19        -7.1310    1.1620    0.6570 h1        1 MOL      0.046042
     48 N5         -6.3930   -0.5130   -1.5320 n         1 MOL     -0.040769
     49 C16        -6.2720   -1.8750   -2.1250 c3        1 MOL      0.013560
     50 C17        -6.2550   -2.9760   -1.0090 c         1 MOL      0.507061
     51 O10        -6.3590   -4.1280   -1.3650 o         1 MOL     -0.537196
     52 C18        -5.1260   -1.9320   -3.0360 c3        1 MOL     -0.235833
     53 C19        -3.7350   -2.0720   -2.3700 c         1 MOL      0.562632
     54 N6         -2.7380   -2.2680   -3.1970 n         1 MOL     -0.620806
     55 O11        -3.5210   -1.9560   -1.1380 o         1 MOL     -0.390665
     56 H20        -5.5100   -0.0230   -1.5560 hn        1 MOL     -0.011479
     57 H21        -7.1920   -2.0970   -2.6720 h1        1 MOL      0.084787
     58 H22        -5.1310   -1.0210   -3.6390 hc        1 MOL      0.085398
     59 H23        -5.2800   -2.8040   -3.6710 hc        1 MOL      0.085398
     60 H24        -2.9080   -2.2920   -4.1970 hn        1 MOL      0.330169
     61 H25        -1.7790   -2.0690   -2.9320 hn        1 MOL      0.330169
     62 N7         -6.2430   -2.6250    0.3010 n         1 MOL     -0.339147
     63 C20        -6.3260   -3.5080    1.4520 c3        1 MOL     -0.169112
     64 C21        -5.0090   -4.2630    1.7380 c         1 MOL      0.457728
     65 O12        -5.0480   -5.2070    2.5500 o         1 MOL     -0.592239
     66 H26        -5.9830   -1.6790    0.5230 hn        1 MOL      0.241064
     67 H27        -7.1250   -4.2330    1.3630 h1        1 MOL      0.115255
     68 H28        -6.5610   -3.0280    2.4010 h1        1 MOL      0.115255
     69 N8         -3.9060   -3.9600    1.1020 n         1 MOL     -0.020599
     70 C22        -2.6080   -4.6350    1.2680 c3        1 MOL     -0.314172
     71 C23        -1.4980   -3.5820    1.4550 c         1 MOL      0.698839
     72 O13        -1.5740   -2.4960    0.8950 o         1 MOL     -0.687344
     73 C24        -2.2910   -5.5970    0.0630 c3        1 MOL      0.599688
     74 C25        -3.1480   -6.8610    0.0410 c3        1 MOL     -0.554303
     75 O14        -2.4750   -4.8980   -1.1770 oh        1 MOL     -0.608190
     76 H29        -3.9530   -3.1060    0.5630 hn        1 MOL      0.041310
     77 H30        -2.6290   -5.1710    2.2090 h1        1 MOL      0.099907
     78 H31        -1.2450   -5.8980    0.1470 h1        1 MOL     -0.056475
     79 H32        -2.4700   -3.9450   -1.0700 ho        1 MOL      0.293677
     80 H33        -3.0490   -7.4020    0.9740 hc        1 MOL      0.142678
     81 H34        -4.1690   -6.4800    0.0110 hc        1 MOL      0.142678
     82 H35        -2.8700   -7.4330   -0.8360 hc        1 MOL      0.142678
     83 N9         -0.4940   -3.8380    2.2390 n         1 MOL     -0.504604
     84 C26         0.6540   -2.9240    2.2120 c3        1 MOL     -0.005371
     85 C27         1.4270   -3.1280    0.9240 c         1 MOL      0.654256
     86 O15         1.8230   -4.2700    0.6930 o         1 MOL     -0.599251
     87 C28         1.5440   -3.1810    3.4120 c3        1 MOL      0.068007
     88 C29         0.8800   -2.9030    4.8110 c3        1 MOL      0.065502
     89 C30         2.7810   -2.2210    3.4270 c3        1 MOL     -0.200626
     90 C31         1.6810   -3.1630    6.1060 c3        1 MOL     -0.111830
     91 H36        -0.3820   -4.8190    2.4500 hn        1 MOL      0.282868
     92 H37         0.2900   -1.9020    2.2260 h1        1 MOL      0.074921
     93 H38         1.9160   -4.2040    3.3780 hc        1 MOL      0.015081
     94 H39        -0.0750   -3.4240    4.8560 hc        1 MOL     -0.022104
     95 H40         0.5360   -1.8740    4.8310 hc        1 MOL     -0.022104
     96 H41         3.5440   -2.3970    4.1930 hc        1 MOL      0.050588
     97 H42         3.3900   -2.4340    2.5450 hc        1 MOL      0.050588
     98 H43         2.2850   -1.2520    3.4410 hc        1 MOL      0.050588
     99 H44         2.1210   -4.1680    6.1160 hc        1 MOL      0.021456
    100 H45         2.5050   -2.4440    6.1050 hc        1 MOL      0.021456
    101 H46         1.0630   -3.0600    6.9890 hc        1 MOL      0.021456
    102 N10         1.7430   -2.0560    0.1580 n         1 MOL     -0.464106
    103 C32         2.6260   -2.0050   -1.0190 c3        1 MOL      0.209951
    104 C33         4.0560   -1.5830   -0.7670 c         1 MOL      0.479749
    105 O16         4.2260   -0.9340    0.2940 o         1 MOL     -0.417078
    106 C34         2.0390   -1.2090   -2.1790 c3        1 MOL     -0.357027
    107 C35         0.5490   -1.4600   -2.6370 c         1 MOL      0.660108
    108 O17         0.3730   -1.9750   -3.7820 o         1 MOL     -0.631036
    109 O18        -0.5110   -1.0650   -1.9700 o         1 MOL     -0.631036
    110 H47         1.2700   -1.1860    0.3660 hn        1 MOL      0.292314
    111 H48         2.6820   -3.0550   -1.3230 h1        1 MOL      0.029861
    112 H49         2.6550   -1.3050   -3.0770 hc        1 MOL      0.096025
    113 H50         2.1580   -0.1750   -1.8560 hc        1 MOL      0.096025
    114 N11         4.9880   -1.9240   -1.6410 n         1 MOL     -0.710610
    115 C36         6.4340   -1.5300   -1.3920 c3        1 MOL      0.511882
    116 C37         6.7270    0.0040   -0.9510 c         1 MOL      0.162468
    117 O19         7.3130    0.2120    0.1160 o         1 MOL     -0.425497
    118 C38         7.3300   -2.0510   -2.5210 c3        1 MOL     -0.345235
    119 C39         8.8120   -1.9330   -2.2800 ca        1 MOL      0.179472
    120 C40         9.6400   -1.5020   -3.3640 ca        1 MOL     -0.171111
    121 C41         9.4600   -2.3170   -1.0610 ca        1 MOL     -0.171111
    122 C42        11.0340   -1.3640   -3.1520 ca        1 MOL     -0.149662
    123 C43        10.8430   -2.1650   -0.8730 ca        1 MOL     -0.149662
    124 C44        11.6370   -1.6740   -1.9100 ca        1 MOL     -0.079446
    125 H51         4.7350   -2.2480   -2.5600 hn        1 MOL      0.367204
    126 H52         6.8250   -2.0990   -0.5530 h1        1 MOL      0.022508
    127 H53         6.9660   -1.5450   -3.4140 hc        1 MOL      0.089685
    128 H54         7.2790   -3.1450   -2.5540 hc        1 MOL      0.089685
    129 H55         9.2810   -1.3090   -4.3620 ha        1 MOL      0.119668
    130 H56         8.8940   -2.6570   -0.1980 ha        1 MOL      0.119668
    131 H57        11.6290   -0.9750   -3.9630 ha        1 MOL      0.123605
    132 H58        11.1820   -2.3200    0.1400 ha        1 MOL      0.123605
    133 H59        12.6990   -1.4700   -1.8250 ha        1 MOL      0.090674
    134 N12         6.2200    1.0050   -1.7790 n         1 MOL     -0.012502
    135 C45         6.4740    2.3820   -1.3760 c3        1 MOL     -0.016819
    136 C46         5.9200    2.8310   -0.0540 c         1 MOL      0.392886
    137 O20         6.4230    3.7510    0.5140 o         1 MOL     -0.512384
    138 C47         5.9830    3.2460   -2.4980 c3        1 MOL     -0.263835
    139 C48         4.8880    2.3670   -3.0890 c3        1 MOL      0.139557
    140 C49         5.3650    0.9420   -2.9250 c3        1 MOL     -0.154710
    141 H60         7.5490    2.5260   -1.2900 h1        1 MOL      0.070664
    142 H61         5.5920    4.1810   -2.1090 hc        1 MOL      0.094379
    143 H62         6.7980    3.3150   -3.2230 hc        1 MOL      0.094379
    144 H63         3.9930    2.5760   -2.5160 hc        1 MOL      0.005444
    145 H64         4.7620    2.7150   -4.1110 hc        1 MOL      0.005444
    146 H65         4.5050    0.2650   -2.9240 h1        1 MOL      0.050124
    147 H66         6.0050    0.7020   -3.7790 h1        1 MOL      0.050124
    148 N13         4.7900    2.2220    0.3170 n         1 MOL      0.075169
    149 C50         4.0360    2.4160    1.5080 c3        1 MOL     -0.385755
    150 C51         4.8020    1.8050    2.7370 c         1 MOL      0.556039
    151 O21         5.0610    2.3640    3.7870 o         1 MOL     -0.556383
    152 C52         2.6510    1.8270    1.4470 c3        1 MOL      0.112601
    153 C53         1.8820    2.2410    0.1950 c3        1 MOL      0.030142
    154 C54         0.5080    1.5000    0.2210 c         1 MOL      0.583412
    155 O22        -0.5100    1.9080   -0.3070 o         1 MOL     -0.700600
    156 O23         0.3780    0.3380    0.7870 o         1 MOL     -0.700600
    157 H67         4.3730    1.5700   -0.3350 hn        1 MOL      0.129445
    158 H68         3.8570    3.4830    1.6320 h1        1 MOL      0.131606
    159 H69         2.1340    1.9840    2.3980 hc        1 MOL     -0.004430
    160 H70         2.7170    0.7430    1.3760 hc        1 MOL     -0.004430
    161 H71         2.3080    1.9990   -0.7780 hc        1 MOL      0.007302
    162 H72         1.7010    3.3170    0.2460 hc        1 MOL      0.007302
    163 N14         5.2880    0.5680    2.5250 n         1 MOL     -0.176004
    164 C55         6.2910   -0.0350    3.4660 c3        1 MOL     -0.189555
    165 H73         6.3540    0.5740    4.3670 h1        1 MOL      0.081426
    166 H74         5.9790   -1.0450    3.7310 h1        1 MOL      0.081426
    167 H75         7.2670   -0.0700    2.9830 h1        1 MOL      0.081426
    168 H76         5.0210    0.0540    1.7040 hn        1 MOL      0.123774
    169 Ca1        -2.1410   -0.1230   -0.0670 Ca        1 MOL      1.603126
    170 O24        -1.8390    0.1460    2.6780 oh        1 MOL     -0.772914
    171 H77        -1.9020    0.2040    3.6320 ho        1 MOL      0.390244
    172 H78        -0.8930    0.1860    2.5010 ho        1 MOL      0.390244
    173 O25        -4.5860   -0.5200    1.3970 oh        1 MOL     -0.772914
    174 H79        -4.3940    0.4120    1.3310 ho        1 MOL      0.390244
    175 H80        -5.1180   -0.5940    2.1950 ho        1 MOL      0.390244
@<TRIPOS>BOND
     1    1    2 1   
     2    1    4 1   
     3    1    5 1   
     4    1    6 1   
     5    2    3 2   
     6    2    7 1   
     7    7    8 1   
     8    7   15 1   
     9    8    9 1   
    10    8   11 1   
    11    8   16 1   
    12    9   10 2   
    13    9   19 1   
    14   11   12 1   
    15   11   17 1   
    16   11   18 1   
    17   12   13 1   
    18   12   14 1   
    19   19   20 1   
    20   19   24 1   
    21   20   21 1   
    22   20   23 1   
    23   20   25 1   
    24   21   22 2   
    25   21   29 1   
    26   23   26 1   
    27   23   27 1   
    28   23   28 1   
    29   29   30 1   
    30   29   37 1   
    31   30   31 1   
    32   30   33 1   
    33   30   38 1   
    34   31   32 2   
    35   31   41 1   
    36   33   34 1   
    37   33   39 1   
    38   33   40 1   
    39   34   35 1   
    40   34   36 1   
    41   41   42 1   
    42   41   45 1   
    43   42   43 1   
    44   42   46 1   
    45   42   47 1   
    46   43   44 2   
    47   43   48 1   
    48   48   49 1   
    49   48   56 1   
    50   49   50 1   
    51   49   52 1   
    52   49   57 1   
    53   50   51 2   
    54   50   62 1   
    55   52   53 1   
    56   52   58 1   
    57   52   59 1   
    58   53   54 1   
    59   53   55 2   
    60   54   60 1   
    61   54   61 1   
    62   62   63 1   
    63   62   66 1   
    64   63   64 1   
    65   63   67 1   
    66   63   68 1   
    67   64   65 2   
    68   64   69 1   
    69   69   70 1   
    70   69   76 1   
    71   70   71 1   
    72   70   73 1   
    73   70   77 1   
    74   71   72 2   
    75   71   83 1   
    76   73   74 1   
    77   73   75 1   
    78   73   78 1   
    79   74   80 1   
    80   74   81 1   
    81   74   82 1   
    82   75   79 1   
    83   83   84 1   
    84   83   91 1   
    85   84   85 1   
    86   84   87 1   
    87   84   92 1   
    88   85   86 2   
    89   85  102 1   
    90   87   88 1   
    91   87   89 1   
    92   87   93 1   
    93   88   90 1   
    94   88   94 1   
    95   88   95 1   
    96   89   96 1   
    97   89   97 1   
    98   89   98 1   
    99   90   99 1   
   100   90  100 1   
   101   90  101 1   
   102  102  103 1   
   103  102  110 1   
   104  103  104 1   
   105  103  106 1   
   106  103  111 1   
   107  104  105 2   
   108  104  114 1   
   109  106  107 1   
   110  106  112 1   
   111  106  113 1   
   112  107  108 1   
   113  107  109 1   
   114  114  115 1   
   115  114  125 1   
   116  115  116 1   
   117  115  118 1   
   118  115  126 1   
   119  116  117 2   
   120  116  134 1   
   121  118  119 1   
   122  118  127 1   
   123  118  128 1   
   124  119  120 ar  
   125  119  121 ar  
   126  120  122 ar  
   127  120  129 1   
   128  121  123 ar  
   129  121  130 1   
   130  122  124 ar  
   131  122  131 1   
   132  123  124 ar  
   133  123  132 1   
   134  124  133 1   
   135  134  135 1   
   136  134  140 1   
   137  135  136 1   
   138  135  138 1   
   139  135  141 1   
   140  136  137 2   
   141  136  148 1   
   142  138  139 1   
   143  138  142 1   
   144  138  143 1   
   145  139  140 1   
   146  139  144 1   
   147  139  145 1   
   148  140  146 1   
   149  140  147 1   
   150  148  149 1   
   151  148  157 1   
   152  149  150 1   
   153  149  152 1   
   154  149  158 1   
   155  150  151 2   
   156  150  163 1   
   157  152  153 1   
   158  152  159 1   
   159  152  160 1   
   160  153  154 1   
   161  153  161 1   
   162  153  162 1   
   163  154  155 1   
   164  154  156 1   
   165  163  164 1   
   166  163  168 1   
   167  164  165 1   
   168  164  166 1   
   169  164  167 1   
   170  170  171 1   
   171  170  172 1   
   172  173  174 1   
   173  173  175 1   
@<TRIPOS>SUBSTRUCTURE
     1 MOL         1 TEMP              0 ****  ****    0 ROOT
