@<TRIPOS>MOLECULE
MOL
  186   183     1     0     0
SMALL
resp


@<TRIPOS>ATOM
      1 C1          0.4730   -2.1370    6.1160 c3        1 MOL     -0.412266
      2 C2          0.8540   -2.2780    4.6120 c         1 MOL      0.853817
      3 O1          0.1150   -2.9000    3.8790 o         1 MOL     -0.648028
      4 H1         -0.1930   -1.2830    6.2430 hc        1 MOL      0.091435
      5 H2         -0.0310   -3.0430    6.4500 hc        1 MOL      0.091435
      6 H3          1.3770   -1.9840    6.7070 hc        1 MOL      0.091435
      7 N1          1.9310   -1.6810    4.2260 n         1 MOL     -0.771590
      8 C3          2.4580   -1.7230    2.8600 c3        1 MOL      0.498810
      9 C4          2.7870   -3.1130    2.5250 c         1 MOL      0.417719
     10 O2          3.4160   -3.8470    3.2950 o         1 MOL     -0.577151
     11 C5          3.7480   -0.8820    2.7600 c3        1 MOL     -0.394365
     12 C6          4.3260   -0.7130    1.3940 c         1 MOL      0.905748
     13 O3          5.4200   -0.1380    1.2740 o         1 MOL     -0.737540
     14 O4          3.7700   -1.2400    0.4450 o         1 MOL     -0.737540
     15 H4          2.4950   -1.2810    4.9650 hn        1 MOL      0.342276
     16 H5          1.7480   -1.2280    2.1850 h1        1 MOL     -0.023037
     17 H6          4.4740   -1.3970    3.4010 hc        1 MOL      0.057629
     18 H7          3.5380    0.1160    3.1470 hc        1 MOL      0.057629
     19 N2          2.2590   -3.6010    1.4100 n         1 MOL     -0.135270
     20 C7          2.3890   -4.9790    0.9420 c3        1 MOL     -0.096447
     21 C8          3.5620   -5.2780    0.0370 c         1 MOL      0.585527
     22 O5          4.2580   -6.2940    0.1140 o         1 MOL     -0.599026
     23 C9          1.0120   -5.5250    0.4270 c3        1 MOL      0.201890
     24 C10        -0.0510   -5.5220    1.5640 c3        1 MOL     -0.079933
     25 C11         1.0520   -6.9100   -0.2380 c3        1 MOL     -0.256849
     26 C12        -1.4190   -5.9610    1.1330 c3        1 MOL     -0.133108
     27 H8          1.7610   -2.9070    0.8770 hn        1 MOL      0.024393
     28 H9          2.6740   -5.5400    1.8300 h1        1 MOL      0.057452
     29 H10         0.7000   -4.7880   -0.3150 hc        1 MOL      0.013703
     30 H11        -0.2450   -4.5070    1.9250 hc        1 MOL      0.052089
     31 H12         0.2040   -6.0870    2.4560 hc        1 MOL      0.052089
     32 H13         1.0520   -7.6270    0.5780 hc        1 MOL      0.048546
     33 H14         0.1760   -7.0710   -0.8660 hc        1 MOL      0.048546
     34 H15         1.9250   -7.0260   -0.8770 hc        1 MOL      0.048546
     35 H16        -1.4870   -6.9840    0.7730 hc        1 MOL      0.028371
     36 H17        -2.1980   -5.8540    1.8900 hc        1 MOL      0.028371
     37 H18        -1.6980   -5.2440    0.3580 hc        1 MOL      0.028371
     38 N3          3.8720   -4.2820   -0.8350 n         1 MOL     -0.367619
     39 C13         4.8250   -4.2910   -1.9730 c3        1 MOL      0.097085
     40 C14         6.1090   -3.4500   -1.7660 c         1 MOL      0.362582
     41 O6          7.0350   -3.5010   -2.5310 o         1 MOL     -0.546971
     42 C15         4.0480   -4.0110   -3.2860 c3        1 MOL     -0.232685
     43 C16         3.3850   -2.6500   -3.2460 c         1 MOL      0.819402
     44 O7          2.5090   -2.5030   -4.1410 o         1 MOL     -0.716802
     45 O8          3.7800   -1.6250   -2.5360 o         1 MOL     -0.716802
     46 H19         3.3490   -3.4200   -0.7020 hn        1 MOL      0.204139
     47 H20         5.1530   -5.3210   -2.1100 h1        1 MOL      0.066092
     48 H21         3.2770   -4.7850   -3.3510 hc        1 MOL      0.060326
     49 H22         4.7870   -4.0830   -4.0900 hc        1 MOL      0.060326
     50 N4          6.2020   -2.6440   -0.7470 n         1 MOL     -0.123471
     51 C17         7.4790   -1.9860   -0.2490 c3        1 MOL     -0.303313
     52 C18         7.9630   -0.7120   -0.9740 c         1 MOL      0.651139
     53 O9          9.1410   -0.4670   -0.9450 o         1 MOL     -0.620022
     54 H23         5.4360   -2.5830   -0.0900 hn        1 MOL      0.185809
     55 H24         8.2870   -2.6810   -0.4880 h1        1 MOL      0.117372
     56 H25         7.4840   -1.7570    0.8170 h1        1 MOL      0.117372
     57 N5          7.0350    0.0720   -1.5030 n         1 MOL     -0.284308
     58 C19         7.3190    1.3900   -2.0250 c3        1 MOL      0.031499
     59 C20         7.4050    2.4620   -0.9120 c         1 MOL      0.489313
     60 O10         7.8450    3.6040   -1.1480 o         1 MOL     -0.585100
     61 C21         6.3350    1.6820   -3.1370 c3        1 MOL     -0.190908
     62 C22         4.8740    1.6680   -2.7870 c         1 MOL      0.713792
     63 O11         4.0000    1.6030   -3.6900 o         1 MOL     -0.721308
     64 O12         4.5410    1.5670   -1.6000 o         1 MOL     -0.721308
     65 H26         6.0620   -0.1960   -1.4490 hn        1 MOL      0.189251
     66 H27         8.3120    1.3450   -2.4600 h1        1 MOL      0.063744
     67 H28         6.5000    0.9580   -3.9400 hc        1 MOL      0.051758
     68 H29         6.6320    2.6530   -3.5550 hc        1 MOL      0.051758
     69 N6          7.0310    2.1220    0.3330 n         1 MOL     -0.282676
     70 C23         6.9930    3.1580    1.3710 c3        1 MOL     -0.149911
     71 C24         5.6650    3.9540    1.6380 c         1 MOL      0.497693
     72 O13         5.7030    4.8790    2.4330 o         1 MOL     -0.578254
     73 H30         6.6470    1.2060    0.5340 hn        1 MOL      0.235965
     74 H31         7.8970    3.7740    1.3270 h1        1 MOL      0.097640
     75 H32         7.1400    2.7340    2.3600 h1        1 MOL      0.097640
     76 N7          4.5440    3.5050    1.0460 n         1 MOL     -0.255117
     77 C25         3.2520    4.0940    1.2750 c3        1 MOL     -0.069252
     78 C26         2.1950    3.0070    1.2970 c         1 MOL      0.572416
     79 O14         2.4090    1.9660    0.6450 o         1 MOL     -0.615178
     80 C27         3.0340    5.2000    0.2300 c3        1 MOL      0.088616
     81 C28         3.9240    6.3430    0.5170 c3        1 MOL     -0.324832
     82 C29         3.4520    7.5860   -0.1710 c         1 MOL      0.715947
     83 N8          4.0910    7.9840   -1.2430 n         1 MOL     -0.837639
     84 O15         2.5110    8.1900    0.2690 o         1 MOL     -0.594800
     85 H33         4.6510    2.7990    0.3430 hn        1 MOL      0.233611
     86 H34         3.3000    4.5370    2.2680 h1        1 MOL      0.087804
     87 H35         1.9900    5.5040    0.2030 hc        1 MOL      0.020334
     88 H36         3.1290    4.8040   -0.7850 hc        1 MOL      0.020334
     89 H37         4.9240    6.1060    0.1770 hc        1 MOL      0.105430
     90 H38         3.9610    6.5090    1.5910 hc        1 MOL      0.105430
     91 H39         4.6950    7.3170   -1.6940 hn        1 MOL      0.369785
     92 H40         3.9700    8.9450   -1.5390 hn        1 MOL      0.369785
     93 N9          1.0680    3.1930    2.0540 n         1 MOL     -0.503830
     94 C30        -0.0870    2.2990    2.1050 c3        1 MOL      0.143747
     95 C31        -1.0900    2.8410    1.0860 c         1 MOL      0.292819
     96 O16        -1.6020    3.9980    1.1880 o         1 MOL     -0.535867
     97 C32        -0.7680    2.2730    3.5130 c3        1 MOL      0.400462
     98 C33        -1.8610    1.2000    3.7230 c3        1 MOL     -0.384527
     99 C34         0.3570    2.1800    4.6000 c3        1 MOL     -0.384527
    100 H41         1.0110    4.0180    2.6260 hn        1 MOL      0.276641
    101 H42         0.1890    1.2880    1.8270 h1        1 MOL      0.123593
    102 H43        -1.1780    3.2700    3.6950 hc        1 MOL     -0.062795
    103 H44        -2.3570    1.3230    4.6820 hc        1 MOL      0.071809
    104 H45        -2.5860    1.3980    2.9350 hc        1 MOL      0.071809
    105 H46        -1.4650    0.2100    3.4750 hc        1 MOL      0.071809
    106 H47         0.9690    1.3050    4.3640 hc        1 MOL      0.071809
    107 H48         0.8580    3.1500    4.6730 hc        1 MOL      0.071809
    108 H49        -0.1330    2.0740    5.5670 hc        1 MOL      0.071809
    109 N10        -1.3660    1.9390    0.1110 n         1 MOL     -0.069834
    110 C35        -2.5250    2.1560   -0.6980 c3        1 MOL      0.007368
    111 C36        -3.8730    1.8960   -0.0500 c         1 MOL      0.343861
    112 O17        -3.9060    1.1690    0.9260 o         1 MOL     -0.259723
    113 C37        -2.3760    1.4160   -2.0400 c3        1 MOL     -0.161662
    114 C38        -3.4200    1.7980   -3.0340 c         1 MOL      0.479321
    115 N11        -3.1590    2.7610   -3.8430 n         1 MOL     -0.653345
    116 O18        -4.4380    1.1430   -3.1920 o         1 MOL     -0.449629
    117 H50        -0.8290    1.0830    0.1440 hn        1 MOL      0.105955
    118 H51        -2.5150    3.2160   -0.9510 h1        1 MOL      0.027293
    119 H52        -2.3630    0.3330   -1.9200 hc        1 MOL      0.086592
    120 H53        -1.3550    1.5400   -2.3930 hc        1 MOL      0.086592
    121 H54        -2.2990    3.2960   -3.7890 hn        1 MOL      0.324975
    122 H55        -3.8750    3.1140   -4.4530 hn        1 MOL      0.324975
    123 N12        -5.0440    2.3740   -0.5940 n         1 MOL     -0.444669
    124 C39        -6.4120    2.0330   -0.1660 c3        1 MOL      0.206519
    125 C40        -6.5410    0.4870   -0.1890 c         1 MOL      0.594885
    126 O19        -6.8530   -0.1190    0.8470 o         1 MOL     -0.561606
    127 C41        -7.5090    2.5740   -1.1260 c3        1 MOL     -0.305253
    128 C42        -8.8580    2.3250   -0.5640 ca        1 MOL      0.150193
    129 C43        -9.2040    2.8230    0.6930 ca        1 MOL     -0.205249
    130 C44        -9.8510    1.7040   -1.3090 ca        1 MOL     -0.205249
    131 C45       -10.4860    2.6270    1.2450 ca        1 MOL     -0.250012
    132 C46       -11.1680    1.5020   -0.8050 ca        1 MOL     -0.250012
    133 C47       -11.4650    2.0100    0.4800 ca        1 MOL      0.344590
    134 O20       -12.7040    1.8890    0.9830 oh        1 MOL     -0.550387
    135 H56        -4.8710    3.1930   -1.1560 hn        1 MOL      0.262196
    136 H57        -6.6970    2.3840    0.8220 h1        1 MOL      0.019264
    137 H58        -7.4810    2.1370   -2.1230 hc        1 MOL      0.092126
    138 H59        -7.3770    3.6510   -1.2490 hc        1 MOL      0.092126
    139 H60        -8.4800    3.2500    1.3750 ha        1 MOL      0.140148
    140 H61        -9.5270    1.3600   -2.2780 ha        1 MOL      0.140148
    141 H62       -10.7670    2.9240    2.2390 ha        1 MOL      0.149975
    142 H63       -11.8670    0.9610   -1.4240 ha        1 MOL      0.149975
    143 H64       -13.2330    1.3860    0.3600 ho        1 MOL      0.392610
    144 N13        -6.2440   -0.2860   -1.2480 n         1 MOL     -0.203693
    145 C48        -6.2500   -1.7550   -1.3160 c3        1 MOL     -0.234343
    146 C49        -5.4210   -2.3900   -0.2300 c         1 MOL      0.477560
    147 O21        -5.5570   -3.5760    0.0800 o         1 MOL     -0.515236
    148 C50        -5.8020   -2.2070   -2.7150 c3        1 MOL     -0.022556
    149 C51        -6.7340   -1.6490   -3.7810 c3        1 MOL     -0.189763
    150 C52        -8.1820   -2.1900   -3.7490 c         1 MOL      0.709052
    151 O22        -8.3850   -3.4060   -3.5980 o         1 MOL     -0.722655
    152 O23        -9.1130   -1.4120   -4.0290 o         1 MOL     -0.722655
    153 H65        -5.8960    0.1210   -2.1080 hn        1 MOL      0.175374
    154 H66        -7.2220   -2.2160   -1.1250 h1        1 MOL      0.168133
    155 H67        -5.6570   -3.2910   -2.7560 hc        1 MOL      0.059046
    156 H68        -4.8310   -1.7590   -2.8990 hc        1 MOL      0.059046
    157 H69        -6.2210   -1.9660   -4.6810 hc        1 MOL      0.015124
    158 H70        -6.7060   -0.5560   -3.7240 hc        1 MOL      0.015124
    159 N14        -4.3750   -1.6610    0.3480 n         1 MOL     -0.280215
    160 C53        -3.5240   -2.1980    1.4120 c3        1 MOL      0.031482
    161 C54        -4.1410   -1.8930    2.7900 c         1 MOL      0.417864
    162 O24        -4.0640   -2.7060    3.7130 o         1 MOL     -0.560863
    163 C55        -2.0870   -1.6440    1.2500 c3        1 MOL      0.043883
    164 C56        -1.3840   -1.9740   -0.0390 c3        1 MOL     -0.114502
    165 C57         0.0900   -1.4860   -0.1840 c         1 MOL      0.722312
    166 O25         0.9700   -2.0880   -0.8610 o         1 MOL     -0.728799
    167 O26         0.3510   -0.3440    0.1910 o         1 MOL     -0.728799
    168 H71        -4.1720   -0.7140    0.0660 hn        1 MOL      0.120028
    169 H72        -3.5410   -3.2800    1.4990 h1        1 MOL      0.086084
    170 H73        -1.4760   -1.9640    2.0900 hc        1 MOL      0.043539
    171 H74        -2.1650   -0.5550    1.3570 hc        1 MOL      0.043539
    172 H75        -1.8500   -1.6000   -0.9510 hc        1 MOL      0.016671
    173 H76        -1.3990   -3.0620   -0.0090 hc        1 MOL      0.016671
    174 N15        -4.7770   -0.7040    2.9490 n         1 MOL      0.055553
    175 C58        -5.4550   -0.2500    4.2030 c3        1 MOL     -0.346394
    176 H77        -5.6020    0.8290    4.1660 h1        1 MOL      0.109654
    177 H78        -6.4220   -0.7440    4.2920 h1        1 MOL      0.109654
    178 H79        -4.8360   -0.5030    5.0640 h1        1 MOL      0.109654
    179 H80        -4.8840   -0.1190    2.1350 hn        1 MOL     -0.009479
    180 Ca1         2.4820    0.1200   -1.3240 Ca        1 MOL      1.803658
    181 O27         1.5890    2.4490   -2.3500 oh        1 MOL     -0.857749
    182 H81         2.3270    2.7880   -2.8620 ho        1 MOL      0.399632
    183 H82         0.8350    2.9640   -2.6450 ho        1 MOL      0.399632
    184 O28         1.0870   -0.2390   -3.6270 oh        1 MOL     -0.857749
    185 H83         1.2310   -1.1190   -3.9820 ho        1 MOL      0.399632
    186 H84         0.6060    0.2160   -4.3230 ho        1 MOL      0.399632
@<TRIPOS>BOND
     1    1    2 1   
     2    1    4 1   
     3    1    5 1   
     4    1    6 1   
     5    2    3 2   
     6    2    7 1   
     7    7    8 1   
     8    7   15 1   
     9    8    9 1   
    10    8   11 1   
    11    8   16 1   
    12    9   10 2   
    13    9   19 1   
    14   11   12 1   
    15   11   17 1   
    16   11   18 1   
    17   12   13 1   
    18   12   14 1   
    19   19   20 1   
    20   19   27 1   
    21   20   21 1   
    22   20   23 1   
    23   20   28 1   
    24   21   22 2   
    25   21   38 1   
    26   23   24 1   
    27   23   25 1   
    28   23   29 1   
    29   24   26 1   
    30   24   30 1   
    31   24   31 1   
    32   25   32 1   
    33   25   33 1   
    34   25   34 1   
    35   26   35 1   
    36   26   36 1   
    37   26   37 1   
    38   38   39 1   
    39   38   46 1   
    40   39   40 1   
    41   39   42 1   
    42   39   47 1   
    43   40   41 2   
    44   40   50 1   
    45   42   43 1   
    46   42   48 1   
    47   42   49 1   
    48   43   44 1   
    49   43   45 1   
    50   50   51 1   
    51   50   54 1   
    52   51   52 1   
    53   51   55 1   
    54   51   56 1   
    55   52   53 2   
    56   52   57 1   
    57   57   58 1   
    58   57   65 1   
    59   58   59 1   
    60   58   61 1   
    61   58   66 1   
    62   59   60 2   
    63   59   69 1   
    64   61   62 1   
    65   61   67 1   
    66   61   68 1   
    67   62   63 1   
    68   62   64 1   
    69   69   70 1   
    70   69   73 1   
    71   70   71 1   
    72   70   74 1   
    73   70   75 1   
    74   71   72 2   
    75   71   76 1   
    76   76   77 1   
    77   76   85 1   
    78   77   78 1   
    79   77   80 1   
    80   77   86 1   
    81   78   79 2   
    82   78   93 1   
    83   80   81 1   
    84   80   87 1   
    85   80   88 1   
    86   81   82 1   
    87   81   89 1   
    88   81   90 1   
    89   82   83 1   
    90   82   84 2   
    91   83   91 1   
    92   83   92 1   
    93   93   94 1   
    94   93  100 1   
    95   94   95 1   
    96   94   97 1   
    97   94  101 1   
    98   95   96 2   
    99   95  109 1   
   100   97   98 1   
   101   97   99 1   
   102   97  102 1   
   103   98  103 1   
   104   98  104 1   
   105   98  105 1   
   106   99  106 1   
   107   99  107 1   
   108   99  108 1   
   109  109  110 1   
   110  109  117 1   
   111  110  111 1   
   112  110  113 1   
   113  110  118 1   
   114  111  112 2   
   115  111  123 1   
   116  113  114 1   
   117  113  119 1   
   118  113  120 1   
   119  114  115 1   
   120  114  116 2   
   121  115  121 1   
   122  115  122 1   
   123  123  124 1   
   124  123  135 1   
   125  124  125 1   
   126  124  127 1   
   127  124  136 1   
   128  125  126 2   
   129  125  144 1   
   130  127  128 1   
   131  127  137 1   
   132  127  138 1   
   133  128  129 ar  
   134  128  130 ar  
   135  129  131 ar  
   136  129  139 1   
   137  130  132 ar  
   138  130  140 1   
   139  131  133 ar  
   140  131  141 1   
   141  132  133 ar  
   142  132  142 1   
   143  133  134 1   
   144  134  143 1   
   145  144  145 1   
   146  144  153 1   
   147  145  146 1   
   148  145  148 1   
   149  145  154 1   
   150  146  147 2   
   151  146  159 1   
   152  148  149 1   
   153  148  155 1   
   154  148  156 1   
   155  149  150 1   
   156  149  157 1   
   157  149  158 1   
   158  150  151 1   
   159  150  152 1   
   160  159  160 1   
   161  159  168 1   
   162  160  161 1   
   163  160  163 1   
   164  160  169 1   
   165  161  162 2   
   166  161  174 1   
   167  163  164 1   
   168  163  170 1   
   169  163  171 1   
   170  164  165 1   
   171  164  172 1   
   172  164  173 1   
   173  165  166 1   
   174  165  167 1   
   175  174  175 1   
   176  174  179 1   
   177  175  176 1   
   178  175  177 1   
   179  175  178 1   
   180  181  182 1   
   181  181  183 1   
   182  184  185 1   
   183  184  186 1   
@<TRIPOS>SUBSTRUCTURE
     1 MOL         1 TEMP              0 ****  ****    0 ROOT
