@<TRIPOS>MOLECULE
MOL
  179   176     1     0     0
SMALL
resp


@<TRIPOS>ATOM
      1 C1          1.1150    3.2050    6.1000 c3        1 MOL     -0.217348
      2 C2          0.9950    2.5230    4.7410 c         1 MOL      0.773281
      3 O1          1.9380    2.3020    4.0020 o         1 MOL     -0.604584
      4 H1          1.1530    2.4480    6.8830 hc        1 MOL      0.053776
      5 H2          2.0260    3.8010    6.1280 hc        1 MOL      0.053776
      6 H3          0.2520    3.8510    6.2600 hc        1 MOL      0.053776
      7 N1         -0.2840    2.2170    4.4130 n         1 MOL     -0.640611
      8 C3         -0.7790    1.9910    3.0950 c3        1 MOL     -0.044493
      9 C4         -0.6940    3.3090    2.2750 c         1 MOL      0.708454
     10 O2         -1.3040    4.3200    2.5790 o         1 MOL     -0.552764
     11 C5         -2.2300    1.4380    3.2720 c3        1 MOL     -0.246617
     12 C6         -2.8550    1.0430    1.8940 c         1 MOL      0.852022
     13 O3         -4.0940    0.8560    1.8350 o         1 MOL     -0.786582
     14 O4         -2.2480    1.2310    0.8010 o         1 MOL     -0.786582
     15 H4         -0.9190    2.0300    5.1740 hn        1 MOL      0.333715
     16 H5         -0.2150    1.2260    2.5520 h1        1 MOL      0.046767
     17 H6         -2.7910    2.2650    3.6960 hc        1 MOL      0.082031
     18 H7         -2.2700    0.5670    3.9360 hc        1 MOL      0.082031
     19 N2          0.0910    3.2820    1.1910 n         1 MOL     -0.333021
     20 C7          0.5580    4.5030    0.5510 c3        1 MOL     -0.081122
     21 C8         -0.5340    5.0330   -0.3770 c         1 MOL      0.397478
     22 O5         -0.6500    6.2730   -0.3900 o         1 MOL     -0.536325
     23 C9          1.7480    4.1920   -0.3100 c3        1 MOL     -0.044869
     24 C10         2.3820    5.5470   -0.7390 c3        1 MOL     -0.004353
     25 C11         3.7300    5.3120   -1.4460 c3        1 MOL      0.008140
     26 C12         4.4110    6.5610   -2.0460 c3        1 MOL     -0.067044
     27 N3          3.6290    7.1840   -3.1570 n4        1 MOL     -0.395796
     28 H8          0.4540    2.3880    0.8800 hn        1 MOL      0.177323
     29 H9          0.7130    5.2280    1.3480 h1        1 MOL      0.131560
     30 H10         1.4400    3.6280   -1.1850 hc        1 MOL      0.067375
     31 H11         2.4510    3.6100    0.2890 hc        1 MOL      0.067375
     32 H12         2.5410    6.2240    0.0990 hc        1 MOL      0.013012
     33 H13         1.6660    6.0770   -1.3720 hc        1 MOL      0.013012
     34 H14         3.5860    4.6110   -2.2750 hc        1 MOL      0.047551
     35 H15         4.3330    4.7890   -0.7050 hc        1 MOL      0.047551
     36 H16         5.4280    6.2760   -2.3190 hx        1 MOL      0.116654
     37 H17         4.4730    7.2990   -1.2390 hx        1 MOL      0.116654
     38 H18         4.1530    7.9870   -3.5020 hn        1 MOL      0.342883
     39 H19         3.3930    6.5060   -3.8660 hn        1 MOL      0.342883
     40 H20         2.7660    7.6220   -2.8500 hn        1 MOL      0.342883
     41 N4         -1.4050    4.2380   -1.1090 n         1 MOL     -0.185625
     42 C13        -2.5460    4.7500   -1.8530 c3        1 MOL      0.042763
     43 C14        -3.9010    4.6650   -1.1760 c         1 MOL      0.447132
     44 O6         -4.7860    5.4620   -1.5580 o         1 MOL     -0.538674
     45 C15        -2.5540    4.0430   -3.2770 c3        1 MOL     -0.223186
     46 C16        -2.6560    2.5040   -3.2560 c         1 MOL      0.770376
     47 O7         -2.6830    1.8700   -4.3610 o         1 MOL     -0.708938
     48 O8         -2.6170    1.8590   -2.1630 o         1 MOL     -0.708938
     49 H21        -1.2800    3.2340   -1.0350 hn        1 MOL      0.140743
     50 H22        -2.3350    5.8020   -2.0710 h1        1 MOL      0.071584
     51 H23        -1.5970    4.2680   -3.7520 hc        1 MOL      0.058647
     52 H24        -3.3260    4.4750   -3.9210 hc        1 MOL      0.058647
     53 N5         -4.1160    3.7920   -0.1500 n         1 MOL     -0.167354
     54 C17        -5.3550    3.7180    0.6820 c3        1 MOL     -0.227029
     55 C18        -6.2930    2.5680    0.3030 c         1 MOL      0.572417
     56 O9         -7.5270    2.7470    0.3780 o         1 MOL     -0.591910
     57 H25        -3.3320    3.1980    0.0800 hn        1 MOL      0.177507
     58 H26        -5.9920    4.6030    0.6970 h1        1 MOL      0.127878
     59 H27        -4.9890    3.4140    1.6700 h1        1 MOL      0.127878
     60 N6         -5.7690    1.5240   -0.3320 n         1 MOL     -0.180126
     61 C19        -6.5740    0.4490   -0.9540 c3        1 MOL     -0.100657
     62 C20        -7.0270   -0.6980   -0.0610 c         1 MOL      0.483739
     63 O10        -7.7840   -1.4690   -0.5590 o         1 MOL     -0.535510
     64 C21        -5.9080   -0.0920   -2.2500 c3        1 MOL     -0.075371
     65 C22        -4.8180   -1.0930   -1.9330 c         1 MOL      0.619359
     66 N7         -4.8320   -2.2010   -2.6180 n         1 MOL     -0.834684
     67 O11        -4.0350   -0.9510   -1.0020 o         1 MOL     -0.695960
     68 H28        -4.7680    1.5100   -0.4960 hn        1 MOL      0.132516
     69 H29        -7.5060    0.8830   -1.3060 h1        1 MOL      0.119115
     70 H30        -5.4100    0.7310   -2.7570 hc        1 MOL      0.055023
     71 H31        -6.6540   -0.5850   -2.8780 hc        1 MOL      0.055023
     72 H32        -5.5580   -2.4360   -3.2830 hn        1 MOL      0.391058
     73 H33        -4.2250   -2.9490   -2.3040 hn        1 MOL      0.391058
     74 N8         -6.4820   -0.7400    1.1340 n         1 MOL     -0.281454
     75 C23        -6.7070   -1.8140    2.0930 c3        1 MOL     -0.173755
     76 C24        -5.5840   -2.8300    2.2280 c         1 MOL      0.546400
     77 O12        -5.7420   -3.7920    3.0420 o         1 MOL     -0.567015
     78 H34        -5.8690    0.0350    1.3700 hn        1 MOL      0.295953
     79 H35        -7.6330   -2.3720    1.9590 h1        1 MOL      0.114981
     80 H36        -6.7970   -1.2290    3.0110 h1        1 MOL      0.114981
     81 N9         -4.4310   -2.6910    1.5200 n         1 MOL     -0.395994
     82 C25        -3.2600   -3.4740    1.9840 c3        1 MOL     -0.026362
     83 C26        -1.8780   -2.8730    1.5640 c         1 MOL      0.576859
     84 O13        -1.8530   -1.9780    0.6820 o         1 MOL     -0.690928
     85 C27        -3.4110   -4.8750    1.2660 c3        1 MOL     -0.208029
     86 C28        -3.2460   -4.8670   -0.3130 ca        1 MOL      0.021737
     87 C29        -1.9330   -4.8000   -0.8990 ca        1 MOL     -0.086194
     88 C30        -4.2700   -5.1480   -1.1370 ca        1 MOL     -0.086194
     89 C31        -1.7490   -5.0400   -2.3170 ca        1 MOL     -0.330672
     90 C32        -4.1020   -5.3380   -2.5330 ca        1 MOL     -0.330672
     91 C33        -2.8720   -5.2280   -3.1330 ca        1 MOL      0.399900
     92 O14        -2.7410   -5.2670   -4.4760 oh        1 MOL     -0.540228
     93 H37        -4.3390   -2.1080    0.7100 hn        1 MOL      0.427522
     94 H38        -3.3360   -3.5910    3.0680 h1        1 MOL      0.114768
     95 H39        -4.3850   -5.3030    1.4920 hc        1 MOL      0.098411
     96 H40        -2.7270   -5.5400    1.7890 hc        1 MOL      0.098411
     97 H41        -1.1330   -4.6690   -0.1680 ha        1 MOL      0.130979
     98 H42        -5.2660   -5.2530   -0.7270 ha        1 MOL      0.130979
     99 H43        -0.7950   -4.9840   -2.8180 ha        1 MOL      0.162181
    100 H44        -4.9710   -5.4470   -3.1540 ha        1 MOL      0.162181
    101 H45        -1.8320   -5.1810   -4.7680 ho        1 MOL      0.391646
    102 N10        -0.7780   -3.2180    2.1370 n         1 MOL     -0.515481
    103 C34         0.5400   -2.6580    2.0130 c3        1 MOL      0.252591
    104 C35         1.4460   -3.6100    1.0940 c         1 MOL      0.269910
    105 O15         1.3400   -4.8490    1.2930 o         1 MOL     -0.524480
    106 C36         1.1920   -2.4350    3.4210 c3        1 MOL      0.239794
    107 C37         0.4330   -1.5750    4.4660 c3        1 MOL      0.024419
    108 C38         2.6390   -1.8430    3.3540 c3        1 MOL     -0.435436
    109 C39         0.4770   -2.1810    5.8810 c3        1 MOL     -0.320438
    110 H46        -0.9300   -3.9640    2.7940 hn        1 MOL      0.286358
    111 H47         0.4840   -1.7000    1.4940 h1        1 MOL     -0.003899
    112 H48         1.2650   -3.4190    3.8840 hc        1 MOL     -0.018674
    113 H49        -0.6110   -1.5670    4.1570 hc        1 MOL      0.022942
    114 H50         0.6980   -0.5150    4.4540 hc        1 MOL      0.022942
    115 H51         3.1190   -1.8400    4.3370 hc        1 MOL      0.082904
    116 H52         3.2360   -2.5850    2.8200 hc        1 MOL      0.082904
    117 H53         2.7360   -0.9010    2.8300 hc        1 MOL      0.082904
    118 H54         0.0580   -1.5250    6.6420 hc        1 MOL      0.082551
    119 H55        -0.0640   -3.1260    5.8720 hc        1 MOL      0.082551
    120 H56         1.5340   -2.3410    6.0960 hc        1 MOL      0.082551
    121 N11         2.3710   -3.0120    0.3120 n         1 MOL     -0.020502
    122 C40         3.3790   -3.6660   -0.5010 c3        1 MOL     -0.087936
    123 C41         4.8520   -3.0950   -0.2450 c         1 MOL      0.336334
    124 O16         4.9870   -2.0220    0.3180 o         1 MOL     -0.342402
    125 C42         3.0890   -3.2890   -1.9170 c3        1 MOL      0.357157
    126 O17         1.9610   -4.0590   -2.3680 oh        1 MOL     -0.707429
    127 H57         2.2620   -2.0100    0.1610 hn        1 MOL      0.271820
    128 H58         3.3860   -4.7440   -0.3690 h1        1 MOL      0.076906
    129 H59         3.9330   -3.5240   -2.5840 h1        1 MOL     -0.024929
    130 H60         2.9090   -2.2240   -2.0200 h1        1 MOL     -0.024929
    131 H61         2.1830   -4.9930   -2.4140 ho        1 MOL      0.414771
    132 N12         5.8930   -3.7800   -0.7280 n         1 MOL     -0.397907
    133 C43         7.3320   -3.5490   -0.3280 c3        1 MOL      0.097062
    134 C44         7.8420   -2.2000   -0.6530 c         1 MOL      0.507785
    135 O18         8.5710   -1.6770    0.1470 o         1 MOL     -0.510217
    136 C45         8.1740   -4.6600   -1.0610 c3        1 MOL     -0.432218
    137 H62         5.7830   -4.5800   -1.3400 hn        1 MOL      0.269510
    138 H63         7.3820   -3.6490    0.7610 h1        1 MOL      0.099958
    139 H64         9.1580   -4.7690   -0.5910 hc        1 MOL      0.137254
    140 H65         7.6480   -5.5970   -0.8780 hc        1 MOL      0.137254
    141 H66         8.1840   -4.4210   -2.1210 hc        1 MOL      0.137254
    142 N13         7.3940   -1.5950   -1.7980 n         1 MOL     -0.340951
    143 C46         7.7400   -0.2930   -2.2760 c3        1 MOL      0.093545
    144 C47         7.1490    0.7890   -1.2680 c         1 MOL      0.386643
    145 O19         7.6940    1.7940   -0.8500 o         1 MOL     -0.471355
    146 C48         7.3060   -0.0950   -3.6910 c3        1 MOL     -0.219634
    147 H67         6.7940   -2.2070   -2.3320 hn        1 MOL      0.230420
    148 H68         8.8330   -0.1980   -2.2900 h1        1 MOL      0.076916
    149 H69         7.6570    0.8730   -4.0670 hc        1 MOL      0.066080
    150 H70         7.5210   -0.9920   -4.2560 hc        1 MOL      0.066080
    151 H71         6.2200   -0.1150   -3.6480 hc        1 MOL      0.066080
    152 N14         5.8490    0.6230   -0.9400 n         1 MOL     -0.149963
    153 C49         5.1130    1.4090    0.0240 c3        1 MOL     -0.239514
    154 C50         5.7290    1.2970    1.3740 c         1 MOL      0.521050
    155 O20         6.1360    2.2870    2.0090 o         1 MOL     -0.542169
    156 C51         3.6570    0.8430    0.0550 c3        1 MOL     -0.231237
    157 C52         2.8810    0.9430   -1.2270 c3        1 MOL      0.113158
    158 C53         1.3960    0.5650   -1.0960 c         1 MOL      0.608500
    159 O21         0.9790   -0.5300   -0.4960 o         1 MOL     -0.715276
    160 O22         0.5400    1.3920   -1.5430 o         1 MOL     -0.715276
    161 H72         5.5630   -0.3190   -1.1490 hn        1 MOL      0.138964
    162 H73         5.0030    2.4580   -0.2460 h1        1 MOL      0.134741
    163 H74         3.0910    1.4320    0.7730 hc        1 MOL      0.102195
    164 H75         3.5520   -0.0690    0.6450 hc        1 MOL      0.102195
    165 H76         3.3570    0.3200   -1.9890 hc        1 MOL     -0.041196
    166 H77         3.0040    1.9530   -1.6120 hc        1 MOL     -0.041196
    167 N15         6.0470    0.1290    1.9540 n         1 MOL     -0.071649
    168 C54         6.7820   -0.0030    3.2620 c3        1 MOL     -0.360025
    169 H78         6.7460   -1.0400    3.5950 h1        1 MOL      0.138067
    170 H79         7.8200    0.2980    3.1280 h1        1 MOL      0.138067
    171 H80         6.3110    0.6350    4.0100 h1        1 MOL      0.138067
    172 H81         5.8440   -0.7190    1.4580 hn        1 MOL      0.122432
    173 Ca1        -1.4570   -0.1870   -1.2650 Ca        1 MOL      1.815826
    174 O23        -2.1900   -0.7010   -3.8890 oh        1 MOL     -0.850411
    175 H82        -2.5710   -1.3870   -4.4410 ho        1 MOL      0.405246
    176 H83        -2.6690    0.0920   -4.1300 ho        1 MOL      0.405246
    177 O24        -0.2010   -2.1650   -2.6580 oh        1 MOL     -0.850411
    178 H84         0.3940   -2.7600   -2.1990 ho        1 MOL      0.405246
    179 H85        -0.1510   -2.4420   -3.5780 ho        1 MOL      0.405246
@<TRIPOS>BOND
     1    1    2 1   
     2    1    4 1   
     3    1    5 1   
     4    1    6 1   
     5    2    3 2   
     6    2    7 1   
     7    7    8 1   
     8    7   15 1   
     9    8    9 1   
    10    8   11 1   
    11    8   16 1   
    12    9   10 2   
    13    9   19 1   
    14   11   12 1   
    15   11   17 1   
    16   11   18 1   
    17   12   13 1   
    18   12   14 1   
    19   19   20 1   
    20   19   28 1   
    21   20   21 1   
    22   20   23 1   
    23   20   29 1   
    24   21   22 2   
    25   21   41 1   
    26   23   24 1   
    27   23   30 1   
    28   23   31 1   
    29   24   25 1   
    30   24   32 1   
    31   24   33 1   
    32   25   26 1   
    33   25   34 1   
    34   25   35 1   
    35   26   27 1   
    36   26   36 1   
    37   26   37 1   
    38   27   38 1   
    39   27   39 1   
    40   27   40 1   
    41   41   42 1   
    42   41   49 1   
    43   42   43 1   
    44   42   45 1   
    45   42   50 1   
    46   43   44 2   
    47   43   53 1   
    48   45   46 1   
    49   45   51 1   
    50   45   52 1   
    51   46   47 1   
    52   46   48 1   
    53   53   54 1   
    54   53   57 1   
    55   54   55 1   
    56   54   58 1   
    57   54   59 1   
    58   55   56 2   
    59   55   60 1   
    60   60   61 1   
    61   60   68 1   
    62   61   62 1   
    63   61   64 1   
    64   61   69 1   
    65   62   63 2   
    66   62   74 1   
    67   64   65 1   
    68   64   70 1   
    69   64   71 1   
    70   65   66 1   
    71   65   67 2   
    72   66   72 1   
    73   66   73 1   
    74   74   75 1   
    75   74   78 1   
    76   75   76 1   
    77   75   79 1   
    78   75   80 1   
    79   76   77 2   
    80   76   81 1   
    81   81   82 1   
    82   81   93 1   
    83   82   83 1   
    84   82   85 1   
    85   82   94 1   
    86   83   84 2   
    87   83  102 1   
    88   85   86 1   
    89   85   95 1   
    90   85   96 1   
    91   86   87 ar  
    92   86   88 ar  
    93   87   89 ar  
    94   87   97 1   
    95   88   90 ar  
    96   88   98 1   
    97   89   91 ar  
    98   89   99 1   
    99   90   91 ar  
   100   90  100 1   
   101   91   92 1   
   102   92  101 1   
   103  102  103 1   
   104  102  110 1   
   105  103  104 1   
   106  103  106 1   
   107  103  111 1   
   108  104  105 2   
   109  104  121 1   
   110  106  107 1   
   111  106  108 1   
   112  106  112 1   
   113  107  109 1   
   114  107  113 1   
   115  107  114 1   
   116  108  115 1   
   117  108  116 1   
   118  108  117 1   
   119  109  118 1   
   120  109  119 1   
   121  109  120 1   
   122  121  122 1   
   123  121  127 1   
   124  122  123 1   
   125  122  125 1   
   126  122  128 1   
   127  123  124 2   
   128  123  132 1   
   129  125  126 1   
   130  125  129 1   
   131  125  130 1   
   132  126  131 1   
   133  132  133 1   
   134  132  137 1   
   135  133  134 1   
   136  133  136 1   
   137  133  138 1   
   138  134  135 2   
   139  134  142 1   
   140  136  139 1   
   141  136  140 1   
   142  136  141 1   
   143  142  143 1   
   144  142  147 1   
   145  143  144 1   
   146  143  146 1   
   147  143  148 1   
   148  144  145 2   
   149  144  152 1   
   150  146  149 1   
   151  146  150 1   
   152  146  151 1   
   153  152  153 1   
   154  152  161 1   
   155  153  154 1   
   156  153  156 1   
   157  153  162 1   
   158  154  155 2   
   159  154  167 1   
   160  156  157 1   
   161  156  163 1   
   162  156  164 1   
   163  157  158 1   
   164  157  165 1   
   165  157  166 1   
   166  158  159 1   
   167  158  160 1   
   168  167  168 1   
   169  167  172 1   
   170  168  169 1   
   171  168  170 1   
   172  168  171 1   
   173  174  175 1   
   174  174  176 1   
   175  177  178 1   
   176  177  179 1   
@<TRIPOS>SUBSTRUCTURE
     1 MOL         1 TEMP              0 ****  ****    0 ROOT
