@<TRIPOS>MOLECULE
MOL
  186   183     1     0     0
SMALL
resp


@<TRIPOS>ATOM
      1 C1          0.7560   -1.7200    6.7550 c3        1 MOL     -0.238512
      2 C2          1.0380   -1.9220    5.2300 c         1 MOL      0.807074
      3 O1          0.1720   -2.3920    4.4850 o         1 MOL     -0.597371
      4 H1          0.0040   -2.4370    7.0830 hc        1 MOL      0.041039
      5 H2          1.6750   -1.8750    7.3190 hc        1 MOL      0.041039
      6 H3          0.3910   -0.7070    6.9270 hc        1 MOL      0.041039
      7 N1          2.2530   -1.5540    4.7970 n         1 MOL     -0.657831
      8 C3          2.7610   -1.5770    3.3970 c3        1 MOL      0.007998
      9 C4          3.1770   -2.9840    2.8620 c         1 MOL      0.807786
     10 O2          3.5670   -3.7840    3.6910 o         1 MOL     -0.621585
     11 C5          3.8390   -0.5070    3.1400 c3        1 MOL      0.014081
     12 C6          4.3440   -0.5600    1.7070 c         1 MOL      0.389094
     13 O3          5.5620   -0.6360    1.5890 o         1 MOL     -0.572898
     14 O4          3.5140   -0.6490    0.7220 o         1 MOL     -0.572898
     15 H4          2.9260   -1.1920    5.4660 hn        1 MOL      0.319599
     16 H5          1.8790   -1.3310    2.7960 h1        1 MOL      0.028374
     17 H6          4.6380   -0.8210    3.8010 hc        1 MOL      0.017670
     18 H7          3.6490    0.4870    3.5470 hc        1 MOL      0.017670
     19 N2          3.0610   -3.2120    1.5790 n         1 MOL     -0.512795
     20 C7          2.9910   -4.5980    1.0500 c3        1 MOL     -0.016544
     21 C8          3.8100   -4.8120   -0.2480 c         1 MOL      0.661608
     22 O5          4.4280   -5.8850   -0.3330 o         1 MOL     -0.615731
     23 C9          1.5050   -5.1160    0.9630 c3        1 MOL      0.189899
     24 C10         1.2440   -5.8160    2.4290 c3        1 MOL      0.175705
     25 C11         1.2290   -6.1750   -0.0600 c3        1 MOL     -0.335526
     26 C12        -0.2460   -5.9050    2.7220 c3        1 MOL     -0.266981
     27 H8          2.9600   -2.4400    0.9440 hn        1 MOL      0.187954
     28 H9          3.4300   -5.3320    1.7170 h1        1 MOL      0.037288
     29 H10         0.8200   -4.2860    0.7660 hc        1 MOL      0.022665
     30 H11         1.6940   -5.1660    3.1900 hc        1 MOL     -0.043833
     31 H12         1.7200   -6.7850    2.4890 hc        1 MOL     -0.043833
     32 H13         0.1740   -6.4250   -0.0270 hc        1 MOL      0.072350
     33 H14         1.5190   -5.8330   -1.0560 hc        1 MOL      0.072350
     34 H15         1.8340   -7.0800   -0.0410 hc        1 MOL      0.072350
     35 H16        -0.3850   -6.3190    3.7220 hc        1 MOL      0.050841
     36 H17        -0.7320   -4.9340    2.7380 hc        1 MOL      0.050841
     37 H18        -0.7810   -6.5050    1.9890 hc        1 MOL      0.050841
     38 N3          4.0060   -3.7720   -1.0840 n         1 MOL     -0.568912
     39 C13         4.9750   -3.7540   -2.2170 c3        1 MOL      0.197073
     40 C14         6.3610   -2.9860   -1.9770 c         1 MOL      0.464371
     41 O6          7.1870   -2.9260   -2.8560 o         1 MOL     -0.532716
     42 C15         4.2870   -3.3180   -3.5370 c3        1 MOL     -0.302160
     43 C16         3.5970   -1.9900   -3.5910 c         1 MOL      0.817750
     44 O7          3.4930   -1.3570   -2.5440 o         1 MOL     -0.708216
     45 O8          3.0590   -1.6330   -4.6280 o         1 MOL     -0.708216
     46 H19         3.5240   -2.9420   -0.7620 hn        1 MOL      0.307180
     47 H20         5.3300   -4.7740   -2.3940 h1        1 MOL      0.065801
     48 H21         3.6130   -4.1290   -3.8090 hc        1 MOL      0.062680
     49 H22         5.0510   -3.5460   -4.2730 hc        1 MOL      0.062680
     50 N4          6.5870   -2.5690   -0.7170 n         1 MOL     -0.462522
     51 C17         7.8850   -2.0060   -0.3590 c3        1 MOL     -0.132908
     52 C18         8.0430   -0.5060   -0.5290 c         1 MOL      0.470257
     53 O9          9.1610   -0.0590   -0.3540 o         1 MOL     -0.616483
     54 H23         5.8280   -2.4710   -0.0700 hn        1 MOL      0.334274
     55 H24         8.5920   -2.4750   -1.0410 h1        1 MOL      0.112995
     56 H25         8.1820   -2.3290    0.6370 h1        1 MOL      0.112995
     57 N5          7.0310    0.1820   -0.9830 n         1 MOL     -0.062760
     58 C19         7.0920    1.6390   -1.3290 c3        1 MOL     -0.144008
     59 C20         6.8050    2.5330   -0.1740 c         1 MOL      0.466969
     60 O10         7.0320    3.7500   -0.2170 o         1 MOL     -0.584372
     61 C21         6.1410    2.0170   -2.4730 c3        1 MOL     -0.226525
     62 C22         4.6980    1.6130   -2.2060 c         1 MOL      0.701979
     63 O11         4.0150    1.3970   -3.2090 o         1 MOL     -0.658394
     64 O12         4.2620    1.5690   -1.0610 o         1 MOL     -0.658394
     65 H26         6.0920   -0.1220   -0.8160 hn        1 MOL      0.128753
     66 H27         8.1320    1.7510   -1.6390 h1        1 MOL      0.129256
     67 H28         6.4360    1.5830   -3.4290 hc        1 MOL      0.079714
     68 H29         6.1060    3.1000   -2.5580 hc        1 MOL      0.079714
     69 N6          6.4610    2.0280    0.9910 n         1 MOL     -0.168795
     70 C23         6.1060    2.8650    2.1590 c3        1 MOL     -0.144545
     71 C24         4.8440    3.7560    2.0100 c         1 MOL      0.595879
     72 O13         4.5580    4.5720    2.9250 o         1 MOL     -0.625663
     73 H30         6.2830    1.0400    1.0740 hn        1 MOL      0.203656
     74 H31         6.9500    3.5430    2.2970 h1        1 MOL      0.069437
     75 H32         6.0000    2.2140    3.0250 h1        1 MOL      0.069437
     76 N7          4.0470    3.5840    0.9830 n         1 MOL     -0.273162
     77 C25         2.8120    4.2900    0.8920 c3        1 MOL     -0.100818
     78 C26         1.6430    3.2870    0.9600 c         1 MOL      0.715246
     79 O14         1.5260    2.3310    0.2340 o         1 MOL     -0.735644
     80 C27         2.8350    5.0560   -0.3750 c3        1 MOL     -0.036334
     81 C28         4.0470    6.0540   -0.4830 c3        1 MOL     -0.367188
     82 C29         4.1390    6.6140   -1.9340 c         1 MOL      0.756163
     83 N8          4.4800    7.8690   -2.1730 n         1 MOL     -0.865705
     84 O15         4.0480    5.8470   -2.8630 o         1 MOL     -0.548360
     85 H33         4.4090    3.1190    0.1680 hn        1 MOL      0.262366
     86 H34         2.6860    5.0150    1.6960 h1        1 MOL      0.075878
     87 H35         1.8570    5.4750   -0.6390 hc        1 MOL      0.059734
     88 H36         3.0390    4.4200   -1.2260 hc        1 MOL      0.059734
     89 H37         4.9770    5.5030   -0.3040 hc        1 MOL      0.102222
     90 H38         3.8610    6.8230    0.2680 hc        1 MOL      0.102222
     91 H39         4.7490    8.4490   -1.3970 hn        1 MOL      0.366084
     92 H40         4.7870    8.0950   -3.1100 hn        1 MOL      0.366084
     93 N9          0.6520    3.6340    1.8050 n         1 MOL     -0.511976
     94 C30        -0.4980    2.7420    2.0490 c3        1 MOL      0.127031
     95 C31        -1.7610    3.3400    1.3300 c         1 MOL      0.357651
     96 O16        -2.3580    4.3100    1.6870 o         1 MOL     -0.555179
     97 C32        -0.7880    2.8410    3.6170 c3        1 MOL      0.296150
     98 C33        -2.1040    2.0030    3.9740 c3        1 MOL     -0.353603
     99 C34         0.4680    2.2720    4.2400 c3        1 MOL     -0.353603
    100 H41         0.6360    4.5590    2.1900 hn        1 MOL      0.265761
    101 H42        -0.2890    1.7340    1.7230 h1        1 MOL      0.132082
    102 H43        -0.9930    3.8600    3.9510 hc        1 MOL     -0.028902
    103 H44        -2.3800    2.1160    5.0120 hc        1 MOL      0.074519
    104 H45        -2.8820    2.4890    3.3820 hc        1 MOL      0.074519
    105 H46        -2.0020    0.9620    3.6610 hc        1 MOL      0.074519
    106 H47         0.5520    1.2140    4.0090 hc        1 MOL      0.074519
    107 H48         1.3860    2.7270    3.8600 hc        1 MOL      0.074519
    108 H49         0.3670    2.2770    5.3300 hc        1 MOL      0.074519
    109 N10        -2.2150    2.6840    0.2600 n         1 MOL     -0.186724
    110 C35        -3.3050    3.0380   -0.6570 c3        1 MOL      0.095442
    111 C36        -4.5780    2.1890   -0.2240 c         1 MOL      0.494064
    112 O17        -4.5870    1.4620    0.7900 o         1 MOL     -0.398000
    113 C37        -2.7630    2.6690   -2.0860 c3        1 MOL     -0.377673
    114 C38        -3.0530    1.2620   -2.5090 c         1 MOL      0.766246
    115 N11        -2.3670    0.2410   -2.1450 n         1 MOL     -0.857794
    116 O18        -4.0700    1.0550   -3.0790 o         1 MOL     -0.661244
    117 H50        -1.6930    1.8470    0.0230 hn        1 MOL      0.168298
    118 H51        -3.5520    4.0980   -0.5640 h1        1 MOL      0.074380
    119 H52        -1.6870    2.8070   -2.1420 hc        1 MOL      0.101975
    120 H53        -3.1780    3.3730   -2.7990 hc        1 MOL      0.101975
    121 H54        -1.5270    0.3280   -1.5820 hn        1 MOL      0.421876
    122 H55        -2.6550   -0.6390   -2.5400 hn        1 MOL      0.421876
    123 N12        -5.6350    2.4200   -0.9700 n         1 MOL     -0.720969
    124 C39        -6.9150    1.8130   -0.5320 c3        1 MOL      0.368317
    125 C40        -6.9250    0.3150   -0.5640 c         1 MOL      0.653650
    126 O19        -7.5100   -0.2650    0.2980 o         1 MOL     -0.532644
    127 C41        -8.0810    2.3740   -1.3390 c3        1 MOL     -0.082432
    128 C42        -9.4160    2.0980   -0.7810 ca        1 MOL     -0.049821
    129 C43        -9.7080    2.5700    0.5040 ca        1 MOL     -0.138757
    130 C44       -10.3220    1.3090   -1.4890 ca        1 MOL     -0.138757
    131 C45       -10.9820    2.3060    1.1000 ca        1 MOL     -0.244006
    132 C46       -11.6060    1.0070   -0.9480 ca        1 MOL     -0.244006
    133 C47       -11.8900    1.4880    0.3590 ca        1 MOL      0.304055
    134 O20       -13.0780    1.1340    0.9790 oh        1 MOL     -0.489864
    135 H56        -5.6330    2.9940   -1.8020 hn        1 MOL      0.359280
    136 H57        -7.0810    2.1030    0.5100 h1        1 MOL      0.023272
    137 H58        -7.9780    1.9220   -2.3190 hc        1 MOL      0.033024
    138 H59        -7.8190    3.4080   -1.5520 hc        1 MOL      0.033024
    139 H60        -8.9600    3.1470    1.0220 ha        1 MOL      0.130799
    140 H61        -9.9740    1.0220   -2.4700 ha        1 MOL      0.130799
    141 H62       -11.2290    2.6760    2.0780 ha        1 MOL      0.149695
    142 H63       -12.3460    0.4770   -1.5190 ha        1 MOL      0.149695
    143 H64       -13.4470    0.4560    0.4080 ho        1 MOL      0.348477
    144 N13        -6.2420   -0.3570   -1.5320 n         1 MOL     -0.672942
    145 C48        -6.2120   -1.8200   -1.7140 c3        1 MOL      0.179491
    146 C49        -5.5700   -2.4900   -0.4660 c         1 MOL      0.185496
    147 O21        -5.9800   -3.5730   -0.0870 o         1 MOL     -0.484985
    148 C50        -5.4280   -2.1310   -3.0280 c3        1 MOL     -0.028400
    149 C51        -5.3880   -3.6760   -3.3660 c3        1 MOL     -0.375662
    150 C52        -4.5270   -3.8630   -4.6620 c         1 MOL      0.770432
    151 O22        -5.0590   -3.8760   -5.8640 o         1 MOL     -0.752656
    152 O23        -3.3310   -4.0390   -4.4900 o         1 MOL     -0.752656
    153 H65        -5.7490    0.1580   -2.2590 hn        1 MOL      0.330518
    154 H66        -7.1740   -2.3140   -1.8380 h1        1 MOL      0.071343
    155 H67        -4.3970   -1.8100   -2.8600 hc        1 MOL      0.030619
    156 H68        -5.9110   -1.6430   -3.8860 hc        1 MOL      0.030619
    157 H69        -6.3990   -4.0760   -3.5140 hc        1 MOL      0.075527
    158 H70        -4.8790   -4.1350   -2.5230 hc        1 MOL      0.075527
    159 N14        -4.5650   -1.8290    0.1380 n         1 MOL      0.066444
    160 C53        -3.8770   -2.1870    1.3310 c3        1 MOL     -0.149185
    161 C54        -4.6750   -1.8470    2.6380 c         1 MOL      0.486638
    162 O24        -4.7150   -2.5880    3.6130 o         1 MOL     -0.581744
    163 C55        -2.4940   -1.5100    1.3000 c3        1 MOL      0.097392
    164 C56        -1.5290   -2.0510    0.2450 c3        1 MOL     -0.076928
    165 C57        -0.3510   -1.2140   -0.1240 c         1 MOL      0.755221
    166 O25         0.6680   -1.7470   -0.5660 o         1 MOL     -0.771367
    167 O26        -0.4030    0.0550   -0.1380 o         1 MOL     -0.771367
    168 H71        -4.5070   -0.8790   -0.1890 hn        1 MOL      0.167473
    169 H72        -3.8250   -3.2780    1.3450 h1        1 MOL      0.103365
    170 H73        -2.0250   -1.6090    2.2780 hc        1 MOL     -0.010954
    171 H74        -2.5970   -0.4320    1.1710 hc        1 MOL     -0.010954
    172 H75        -2.0470   -2.2480   -0.6970 hc        1 MOL      0.030158
    173 H76        -1.1740   -3.0290    0.5890 hc        1 MOL      0.030158
    174 N15        -5.4060   -0.7660    2.6110 n         1 MOL     -0.017831
    175 C58        -6.3000   -0.3380    3.7410 c3        1 MOL     -0.346851
    176 H77        -6.8930   -1.1890    4.0760 h1        1 MOL      0.119755
    177 H78        -5.6920    0.0290    4.5680 h1        1 MOL      0.119755
    178 H79        -6.9650    0.4550    3.3990 h1        1 MOL      0.119755
    179 H80        -5.3790   -0.1740    1.7910 hn        1 MOL      0.001168
    180 Ca1         2.0100    0.3190   -1.2470 Ca        1 MOL      1.743541
    181 O27         0.7860    2.2090   -2.8200 oh        1 MOL     -0.830068
    182 H81         0.3310    1.8430   -3.5840 ho        1 MOL      0.399392
    183 H82         0.6830    3.1600   -2.9040 ho        1 MOL      0.399392
    184 O28         0.9270   -0.6690   -3.4910 oh        1 MOL     -0.830068
    185 H83         1.6330   -1.1860   -3.8640 ho        1 MOL      0.399392
    186 H84         0.1310   -1.1810   -3.6630 ho        1 MOL      0.399392
@<TRIPOS>BOND
     1    1    2 1   
     2    1    4 1   
     3    1    5 1   
     4    1    6 1   
     5    2    3 2   
     6    2    7 1   
     7    7    8 1   
     8    7   15 1   
     9    8    9 1   
    10    8   11 1   
    11    8   16 1   
    12    9   10 2   
    13    9   19 1   
    14   11   12 1   
    15   11   17 1   
    16   11   18 1   
    17   12   13 1   
    18   12   14 1   
    19   19   20 1   
    20   19   27 1   
    21   20   21 1   
    22   20   23 1   
    23   20   28 1   
    24   21   22 2   
    25   21   38 1   
    26   23   24 1   
    27   23   25 1   
    28   23   29 1   
    29   24   26 1   
    30   24   30 1   
    31   24   31 1   
    32   25   32 1   
    33   25   33 1   
    34   25   34 1   
    35   26   35 1   
    36   26   36 1   
    37   26   37 1   
    38   38   39 1   
    39   38   46 1   
    40   39   40 1   
    41   39   42 1   
    42   39   47 1   
    43   40   41 2   
    44   40   50 1   
    45   42   43 1   
    46   42   48 1   
    47   42   49 1   
    48   43   44 1   
    49   43   45 1   
    50   50   51 1   
    51   50   54 1   
    52   51   52 1   
    53   51   55 1   
    54   51   56 1   
    55   52   53 2   
    56   52   57 1   
    57   57   58 1   
    58   57   65 1   
    59   58   59 1   
    60   58   61 1   
    61   58   66 1   
    62   59   60 2   
    63   59   69 1   
    64   61   62 1   
    65   61   67 1   
    66   61   68 1   
    67   62   63 1   
    68   62   64 1   
    69   69   70 1   
    70   69   73 1   
    71   70   71 1   
    72   70   74 1   
    73   70   75 1   
    74   71   72 2   
    75   71   76 1   
    76   76   77 1   
    77   76   85 1   
    78   77   78 1   
    79   77   80 1   
    80   77   86 1   
    81   78   79 2   
    82   78   93 1   
    83   80   81 1   
    84   80   87 1   
    85   80   88 1   
    86   81   82 1   
    87   81   89 1   
    88   81   90 1   
    89   82   83 1   
    90   82   84 2   
    91   83   91 1   
    92   83   92 1   
    93   93   94 1   
    94   93  100 1   
    95   94   95 1   
    96   94   97 1   
    97   94  101 1   
    98   95   96 2   
    99   95  109 1   
   100   97   98 1   
   101   97   99 1   
   102   97  102 1   
   103   98  103 1   
   104   98  104 1   
   105   98  105 1   
   106   99  106 1   
   107   99  107 1   
   108   99  108 1   
   109  109  110 1   
   110  109  117 1   
   111  110  111 1   
   112  110  113 1   
   113  110  118 1   
   114  111  112 2   
   115  111  123 1   
   116  113  114 1   
   117  113  119 1   
   118  113  120 1   
   119  114  115 1   
   120  114  116 2   
   121  115  121 1   
   122  115  122 1   
   123  123  124 1   
   124  123  135 1   
   125  124  125 1   
   126  124  127 1   
   127  124  136 1   
   128  125  126 2   
   129  125  144 1   
   130  127  128 1   
   131  127  137 1   
   132  127  138 1   
   133  128  129 ar  
   134  128  130 ar  
   135  129  131 ar  
   136  129  139 1   
   137  130  132 ar  
   138  130  140 1   
   139  131  133 ar  
   140  131  141 1   
   141  132  133 ar  
   142  132  142 1   
   143  133  134 1   
   144  134  143 1   
   145  144  145 1   
   146  144  153 1   
   147  145  146 1   
   148  145  148 1   
   149  145  154 1   
   150  146  147 2   
   151  146  159 1   
   152  148  149 1   
   153  148  155 1   
   154  148  156 1   
   155  149  150 1   
   156  149  157 1   
   157  149  158 1   
   158  150  151 1   
   159  150  152 1   
   160  159  160 1   
   161  159  168 1   
   162  160  161 1   
   163  160  163 1   
   164  160  169 1   
   165  161  162 2   
   166  161  174 1   
   167  163  164 1   
   168  163  170 1   
   169  163  171 1   
   170  164  165 1   
   171  164  172 1   
   172  164  173 1   
   173  165  166 1   
   174  165  167 1   
   175  174  175 1   
   176  174  179 1   
   177  175  176 1   
   178  175  177 1   
   179  175  178 1   
   180  181  182 1   
   181  181  183 1   
   182  184  185 1   
   183  184  186 1   
@<TRIPOS>SUBSTRUCTURE
     1 MOL         1 TEMP              0 ****  ****    0 ROOT
