@<TRIPOS>MOLECULE
MOL
  178   175     1     0     0
SMALL
resp


@<TRIPOS>ATOM
      1 C1          0.8710   -2.5300    5.7920 c3        1 MOL     -0.401264
      2 C2          0.9580   -2.1870    4.2950 c         1 MOL      0.777439
      3 O1          0.1000   -2.6270    3.5160 o         1 MOL     -0.602868
      4 H1          0.8050   -3.6110    5.9140 hc        1 MOL      0.102140
      5 H2          1.7610   -2.1610    6.3010 hc        1 MOL      0.102140
      6 H3         -0.0140   -2.0610    6.2210 hc        1 MOL      0.102140
      7 N1          2.0080   -1.4770    3.8460 n         1 MOL     -0.716650
      8 C3          2.3480   -1.3880    2.4040 c3        1 MOL      0.387187
      9 C4          2.7410   -2.8500    2.1030 c         1 MOL      0.428590
     10 O2          3.6210   -3.4440    2.6950 o         1 MOL     -0.542527
     11 C5          3.4510   -0.3800    2.1860 c3        1 MOL     -0.264957
     12 C6          3.8410   -0.2750    0.7820 c         1 MOL      0.598258
     13 O3          4.6640    0.5070    0.4580 o         1 MOL     -0.652329
     14 O4          3.2690   -0.8420   -0.1640 o         1 MOL     -0.652329
     15 H4          2.6530   -1.1380    4.5520 hn        1 MOL      0.334002
     16 H5          1.4410   -1.0900    1.8770 h1        1 MOL     -0.074192
     17 H6          4.3510   -0.7540    2.6700 hc        1 MOL      0.078538
     18 H7          3.1030    0.5370    2.6540 hc        1 MOL      0.078538
     19 N2          2.0390   -3.3850    1.1040 n         1 MOL     -0.219131
     20 C7          2.2500   -4.7160    0.5630 c3        1 MOL      0.202475
     21 C8          3.0010   -4.6380   -0.7840 c         1 MOL      0.443936
     22 O5          3.3180   -5.6670   -1.3580 o         1 MOL     -0.571925
     23 C9          0.9760   -5.5190    0.4740 c3        1 MOL     -0.316691
     24 H8          1.2510   -2.8840    0.7070 hn        1 MOL      0.212884
     25 H9          3.0050   -5.1930    1.1810 h1        1 MOL      0.021317
     26 H10         1.2430   -6.5310    0.1590 hc        1 MOL      0.087580
     27 H11         0.3690   -5.4770    1.3820 hc        1 MOL      0.087580
     28 H12         0.3810   -4.9480   -0.2530 hc        1 MOL      0.087580
     29 N3          3.4820   -3.4730   -1.2110 n         1 MOL     -0.003757
     30 C10         4.7370   -3.3690   -1.9870 c3        1 MOL     -0.106747
     31 C11         6.0070   -3.1380   -1.1670 c         1 MOL      0.386142
     32 O6          7.1160   -3.2660   -1.6420 o         1 MOL     -0.543498
     33 C12         4.7100   -2.2620   -3.0850 c3        1 MOL     -0.059263
     34 C13         3.3450   -2.3380   -3.8080 c         1 MOL      0.537344
     35 O7          3.1310   -3.2150   -4.6740 o         1 MOL     -0.649259
     36 O8          2.4880   -1.4120   -3.6600 o         1 MOL     -0.649259
     37 H13         3.0420   -2.6460   -0.8380 hn        1 MOL      0.003789
     38 H14         4.9200   -4.3020   -2.5130 h1        1 MOL      0.130217
     39 H15         5.4640   -2.5840   -3.7920 hc        1 MOL      0.031766
     40 H16         4.7770   -1.2600   -2.6500 hc        1 MOL      0.031766
     41 N4          5.8720   -2.7890    0.1310 n         1 MOL      0.056850
     42 C14         7.0130   -2.8010    1.0990 c3        1 MOL     -0.406976
     43 C15         7.9100   -1.5920    0.9960 c         1 MOL      0.686995
     44 O9          8.9090   -1.5080    1.6910 o         1 MOL     -0.579482
     45 H17         4.9210   -2.5740    0.4170 hn        1 MOL     -0.091733
     46 H18         7.5570   -3.6960    0.8010 h1        1 MOL      0.158826
     47 H19         6.5920   -2.9310    2.0940 h1        1 MOL      0.158826
     48 N5          7.3770   -0.5110    0.3890 n         1 MOL     -0.568994
     49 C16         8.1460    0.6220   -0.1840 c3        1 MOL      0.148571
     50 C17         7.9440    1.9770    0.5390 c         1 MOL      0.546924
     51 O10         8.9700    2.6400    0.7160 o         1 MOL     -0.545457
     52 C18         7.7440    0.7560   -1.6660 c3        1 MOL     -0.376956
     53 C19         8.5610    1.7730   -2.4820 c         1 MOL      0.824661
     54 N6          9.8200    1.6240   -2.6430 n         1 MOL     -0.882553
     55 O11         8.0160    2.7170   -2.9260 o         1 MOL     -0.599257
     56 H20         6.4280   -0.5080    0.0450 hn        1 MOL      0.491692
     57 H21         9.2090    0.3900   -0.0830 h1        1 MOL      0.046585
     58 H22         6.7290    1.0660   -1.9200 hc        1 MOL      0.069700
     59 H23         7.8480   -0.1940   -2.1980 hc        1 MOL      0.069700
     60 H24        10.2210    0.7310   -2.4130 hn        1 MOL      0.382981
     61 H25        10.4600    2.3350   -2.9810 hn        1 MOL      0.382981
     62 N7          6.6650    2.3280    0.8260 n         1 MOL     -0.201946
     63 C20         6.4260    3.3190    1.8490 c3        1 MOL     -0.190640
     64 C21         5.0240    4.0190    1.6300 c         1 MOL      0.578192
     65 O12         4.8990    5.1380    2.0150 o         1 MOL     -0.536065
     66 H26         5.8700    1.9210    0.3490 hn        1 MOL      0.004684
     67 H27         7.2230    4.0330    1.6720 h1        1 MOL      0.106152
     68 H28         6.5240    2.8140    2.8050 h1        1 MOL      0.106152
     69 N8          3.9270    3.4170    1.0920 n         1 MOL     -0.423980
     70 C22         2.6020    3.9250    1.1180 c3        1 MOL     -0.048544
     71 C23         1.4990    2.8920    1.0510 c         1 MOL      0.422338
     72 O13         1.7280    1.7180    0.6530 o         1 MOL     -0.399382
     73 C24         2.4200    4.8230   -0.0500 c3        1 MOL      0.335198
     74 C25         3.2360    6.0150   -0.0980 c3        1 MOL     -0.483887
     75 O14         2.5860    4.1720   -1.2480 oh        1 MOL     -0.561447
     76 H29         4.0510    2.5200    0.6470 hn        1 MOL      0.376970
     77 H30         2.4510    4.5290    2.0130 h1        1 MOL      0.101781
     78 H31         1.3790    5.1400   -0.0350 h1        1 MOL      0.046024
     79 H32         3.5000    3.9980   -1.4450 ho        1 MOL      0.368397
     80 H33         2.9000    6.5950   -0.9590 hc        1 MOL      0.127114
     81 H34         3.0810    6.5310    0.8490 hc        1 MOL      0.127114
     82 H35         4.2640    5.6820   -0.1990 hc        1 MOL      0.127114
     83 N9          0.2560    3.3360    1.3100 n         1 MOL     -0.402591
     84 C26        -0.9360    2.5300    1.2410 c3        1 MOL     -0.006385
     85 C27        -1.9530    3.0410    0.2700 c         1 MOL      0.503829
     86 O15        -2.2870    4.2240    0.2530 o         1 MOL     -0.611469
     87 C28        -1.4950    2.0240    2.6030 c3        1 MOL      0.225854
     88 C29        -2.1440    3.2190    3.3550 c3        1 MOL      0.343556
     89 C30        -0.6310    1.0570    3.3730 c3        1 MOL     -0.361666
     90 C31        -2.7960    2.8270    4.6630 c3        1 MOL     -0.369455
     91 H36         0.1010    4.2660    1.6860 hn        1 MOL      0.242476
     92 H37        -0.6480    1.5720    0.7950 h1        1 MOL      0.043828
     93 H38        -2.3430    1.4260    2.2880 hc        1 MOL     -0.200808
     94 H39        -2.8620    3.6820    2.6900 hc        1 MOL     -0.069555
     95 H40        -1.4130    4.0090    3.5590 hc        1 MOL     -0.069555
     96 H41         0.2270    1.5870    3.7880 hc        1 MOL      0.078568
     97 H42        -1.2110    0.5320    4.1240 hc        1 MOL      0.078568
     98 H43        -0.2930    0.2190    2.7550 hc        1 MOL      0.078568
     99 H44        -3.5600    2.0590    4.5000 hc        1 MOL      0.068812
    100 H45        -2.0300    2.5000    5.3590 hc        1 MOL      0.068812
    101 H46        -3.4050    3.6690    4.9990 hc        1 MOL      0.068812
    102 N10        -2.4640    2.0860   -0.4610 n         1 MOL     -0.158796
    103 C32        -3.6220    2.1400   -1.4250 c3        1 MOL     -0.008873
    104 C33        -4.8810    1.7060   -0.6540 c         1 MOL      0.562093
    105 O16        -4.7980    1.3290    0.5570 o         1 MOL     -0.481264
    106 C34        -3.0840    1.2570   -2.5520 c3        1 MOL     -0.301271
    107 C35        -4.0010    1.0950   -3.7460 c         1 MOL      0.751528
    108 O17        -3.9560    0.0330   -4.4390 o         1 MOL     -0.719026
    109 O18        -4.8140    1.9720   -4.1380 o         1 MOL     -0.719026
    110 H47        -2.0560    1.1900   -0.2720 hn        1 MOL      0.066468
    111 H48        -3.8010    3.1250   -1.8500 h1        1 MOL      0.078342
    112 H49        -2.8440    0.2870   -2.0970 hc        1 MOL      0.118468
    113 H50        -2.2070    1.6580   -3.0560 hc        1 MOL      0.118468
    114 N11        -6.0700    1.8060   -1.2900 n         1 MOL     -0.577904
    115 C36        -7.2850    1.4190   -0.6160 c3        1 MOL      0.471009
    116 C37        -7.2330   -0.0610   -0.1380 c         1 MOL      0.277335
    117 O19        -7.5440   -0.3470    1.0630 o         1 MOL     -0.533695
    118 C38        -8.4780    1.8370   -1.5410 c3        1 MOL     -0.207633
    119 C39        -9.8980    1.4170   -1.0650 ca        1 MOL      0.040237
    120 C40       -10.2800    1.7280    0.2680 ca        1 MOL     -0.168971
    121 C41       -10.7970    0.6820   -1.9030 ca        1 MOL     -0.168971
    122 C42       -11.5670    1.3810    0.6820 ca        1 MOL     -0.022242
    123 C43       -12.0560    0.2790   -1.4390 ca        1 MOL     -0.022242
    124 C44       -12.4830    0.6500   -0.1700 ca        1 MOL     -0.253839
    125 H51        -6.1570    2.2020   -2.2120 hn        1 MOL      0.264299
    126 H52        -7.2680    2.0220    0.2900 h1        1 MOL     -0.021000
    127 H53        -8.3870    1.3820   -2.5290 hc        1 MOL      0.081676
    128 H54        -8.4260    2.9210   -1.7000 hc        1 MOL      0.081676
    129 H55        -9.5990    2.2250    0.9370 ha        1 MOL      0.115797
    130 H56       -10.4950    0.4760   -2.9120 ha        1 MOL      0.115797
    131 H57       -12.0100    1.6730    1.6240 ha        1 MOL      0.083683
    132 H58       -12.6070   -0.3280   -2.1390 ha        1 MOL      0.083683
    133 H59       -13.3870    0.2470    0.2550 ha        1 MOL      0.138834
    134 N12        -6.9520   -1.0440   -1.0330 n         1 MOL     -0.071610
    135 C45        -7.0330   -2.4300   -0.5310 c3        1 MOL     -0.063375
    136 C46        -5.9250   -2.8970    0.5060 c         1 MOL      0.278610
    137 O20        -6.0070   -3.9490    1.1480 o         1 MOL     -0.494683
    138 C47        -6.9700   -3.2800   -1.8350 c3        1 MOL     -0.212950
    139 C48        -7.3720   -2.3550   -2.9240 c3        1 MOL      0.082149
    140 C49        -6.7100   -1.0660   -2.4770 c3        1 MOL      0.105451
    141 H60        -8.0620   -2.6150   -0.2270 h1        1 MOL      0.118248
    142 H61        -5.9450   -3.5640   -2.0380 hc        1 MOL      0.083032
    143 H62        -7.5510   -4.1970   -1.7200 hc        1 MOL      0.083032
    144 H63        -7.1620   -2.6780   -3.9390 hc        1 MOL     -0.005227
    145 H64        -8.4470   -2.1770   -2.8160 hc        1 MOL     -0.005227
    146 H65        -5.6230   -1.0750   -2.6310 h1        1 MOL      0.006812
    147 H66        -7.2380   -0.3010   -3.0370 h1        1 MOL      0.006812
    148 N13        -4.8970   -2.0590    0.7260 n         1 MOL     -0.037778
    149 C50        -3.8320   -2.2320    1.7440 c3        1 MOL      0.043325
    150 C51        -4.3760   -1.5960    2.9990 c         1 MOL      0.398065
    151 O21        -4.3230   -2.2920    4.0390 o         1 MOL     -0.567665
    152 C52        -2.4200   -1.5390    1.3020 c3        1 MOL     -0.092975
    153 C53        -1.6990   -2.2220    0.1080 c3        1 MOL     -0.085695
    154 C54        -0.6200   -1.3160   -0.5000 c         1 MOL      0.779858
    155 O22         0.4550   -1.7890   -0.8860 o         1 MOL     -0.791315
    156 O23        -0.7580   -0.0980   -0.6150 o         1 MOL     -0.791315
    157 H67        -4.7620   -1.2440    0.1590 hn        1 MOL      0.113378
    158 H68        -3.6300   -3.2930    1.8530 h1        1 MOL      0.058027
    159 H69        -1.8350   -1.5590    2.2240 hc        1 MOL      0.131237
    160 H70        -2.7450   -0.5340    1.0300 hc        1 MOL      0.131237
    161 H71        -2.4950   -2.5730   -0.5450 hc        1 MOL      0.024486
    162 H72        -1.3180   -3.1840    0.4700 hc        1 MOL      0.024486
    163 N14        -5.0920   -0.4780    2.9520 n         1 MOL     -0.067359
    164 C55        -5.8980    0.0470    4.0820 c3        1 MOL     -0.064849
    165 H73        -5.9530   -0.7050    4.8690 h1        1 MOL      0.042163
    166 H74        -5.4290    0.9490    4.4750 h1        1 MOL      0.042163
    167 H75        -6.9040    0.2810    3.7330 h1        1 MOL      0.042163
    168 H76        -5.1940    0.1260    2.1510 hn        1 MOL      0.162326
    169 Ca1         1.5540    0.3160   -1.6850 Ca        1 MOL      1.769590
    170 O24         0.1500    0.0250   -4.2410 oh        1 MOL     -0.874937
    171 H77         0.8510   -0.5520   -4.5340 ho        1 MOL      0.412236
    172 H78        -0.5880   -0.1840   -4.8220 ho        1 MOL      0.412236
    173 O25         0.7340    2.7020   -2.6130 oh        1 MOL     -0.874937
    174 H79         0.2930    2.8660   -3.4470 ho        1 MOL      0.412236
    175 H80         0.8410    3.5750   -2.2310 ho        1 MOL      0.412236
    176 O26         3.8740    1.2870   -2.0420 oh        1 MOL     -0.874937
    177 H81         4.5220    1.0370   -1.3770 ho        1 MOL      0.412236
    178 H82         4.3790    1.7780   -2.6910 ho        1 MOL      0.412236
@<TRIPOS>BOND
     1    1    2 1   
     2    1    4 1   
     3    1    5 1   
     4    1    6 1   
     5    2    3 2   
     6    2    7 1   
     7    7    8 1   
     8    7   15 1   
     9    8    9 1   
    10    8   11 1   
    11    8   16 1   
    12    9   10 2   
    13    9   19 1   
    14   11   12 1   
    15   11   17 1   
    16   11   18 1   
    17   12   13 1   
    18   12   14 1   
    19   19   20 1   
    20   19   24 1   
    21   20   21 1   
    22   20   23 1   
    23   20   25 1   
    24   21   22 2   
    25   21   29 1   
    26   23   26 1   
    27   23   27 1   
    28   23   28 1   
    29   29   30 1   
    30   29   37 1   
    31   30   31 1   
    32   30   33 1   
    33   30   38 1   
    34   31   32 2   
    35   31   41 1   
    36   33   34 1   
    37   33   39 1   
    38   33   40 1   
    39   34   35 1   
    40   34   36 1   
    41   41   42 1   
    42   41   45 1   
    43   42   43 1   
    44   42   46 1   
    45   42   47 1   
    46   43   44 2   
    47   43   48 1   
    48   48   49 1   
    49   48   56 1   
    50   49   50 1   
    51   49   52 1   
    52   49   57 1   
    53   50   51 2   
    54   50   62 1   
    55   52   53 1   
    56   52   58 1   
    57   52   59 1   
    58   53   54 1   
    59   53   55 2   
    60   54   60 1   
    61   54   61 1   
    62   62   63 1   
    63   62   66 1   
    64   63   64 1   
    65   63   67 1   
    66   63   68 1   
    67   64   65 2   
    68   64   69 1   
    69   69   70 1   
    70   69   76 1   
    71   70   71 1   
    72   70   73 1   
    73   70   77 1   
    74   71   72 2   
    75   71   83 1   
    76   73   74 1   
    77   73   75 1   
    78   73   78 1   
    79   74   80 1   
    80   74   81 1   
    81   74   82 1   
    82   75   79 1   
    83   83   84 1   
    84   83   91 1   
    85   84   85 1   
    86   84   87 1   
    87   84   92 1   
    88   85   86 2   
    89   85  102 1   
    90   87   88 1   
    91   87   89 1   
    92   87   93 1   
    93   88   90 1   
    94   88   94 1   
    95   88   95 1   
    96   89   96 1   
    97   89   97 1   
    98   89   98 1   
    99   90   99 1   
   100   90  100 1   
   101   90  101 1   
   102  102  103 1   
   103  102  110 1   
   104  103  104 1   
   105  103  106 1   
   106  103  111 1   
   107  104  105 2   
   108  104  114 1   
   109  106  107 1   
   110  106  112 1   
   111  106  113 1   
   112  107  108 1   
   113  107  109 1   
   114  114  115 1   
   115  114  125 1   
   116  115  116 1   
   117  115  118 1   
   118  115  126 1   
   119  116  117 2   
   120  116  134 1   
   121  118  119 1   
   122  118  127 1   
   123  118  128 1   
   124  119  120 ar  
   125  119  121 ar  
   126  120  122 ar  
   127  120  129 1   
   128  121  123 ar  
   129  121  130 1   
   130  122  124 ar  
   131  122  131 1   
   132  123  124 ar  
   133  123  132 1   
   134  124  133 1   
   135  134  135 1   
   136  134  140 1   
   137  135  136 1   
   138  135  138 1   
   139  135  141 1   
   140  136  137 2   
   141  136  148 1   
   142  138  139 1   
   143  138  142 1   
   144  138  143 1   
   145  139  140 1   
   146  139  144 1   
   147  139  145 1   
   148  140  146 1   
   149  140  147 1   
   150  148  149 1   
   151  148  157 1   
   152  149  150 1   
   153  149  152 1   
   154  149  158 1   
   155  150  151 2   
   156  150  163 1   
   157  152  153 1   
   158  152  159 1   
   159  152  160 1   
   160  153  154 1   
   161  153  161 1   
   162  153  162 1   
   163  154  155 1   
   164  154  156 1   
   165  163  164 1   
   166  163  168 1   
   167  164  165 1   
   168  164  166 1   
   169  164  167 1   
   170  170  171 1   
   171  170  172 1   
   172  173  174 1   
   173  173  175 1   
   174  176  177 1   
   175  176  178 1   
@<TRIPOS>SUBSTRUCTURE
     1 MOL         1 TEMP              0 ****  ****    0 ROOT
