@<TRIPOS>MOLECULE
MOL
  183   181     1     0     0
SMALL
resp


@<TRIPOS>ATOM
      1 C1          0.8210   -2.1810    6.1680 c3        1 MOL     -0.414928
      2 C2          1.0720   -2.1030    4.6460 c         1 MOL      0.741740
      3 O1          0.1700   -2.3790    3.8820 o         1 MOL     -0.584597
      4 H1          0.1000   -1.4160    6.4570 hc        1 MOL      0.097993
      5 H2          0.4260   -3.1650    6.4220 hc        1 MOL      0.097993
      6 H3          1.7580   -2.0160    6.7000 hc        1 MOL      0.097993
      7 N1          2.2890   -1.7220    4.2320 n         1 MOL     -0.653489
      8 C3          2.7000   -1.7050    2.8650 c3        1 MOL      0.314511
      9 C4          3.1340   -3.1530    2.3680 c         1 MOL      0.479613
     10 O2          4.0190   -3.6850    2.9590 o         1 MOL     -0.559380
     11 C5          3.8500   -0.7000    2.8290 c3        1 MOL     -0.271950
     12 C6          4.5300   -0.5440    1.4410 c         1 MOL      0.809549
     13 O3          3.9340   -0.8620    0.3790 o         1 MOL     -0.680337
     14 O4          5.6840   -0.0640    1.4500 o         1 MOL     -0.680337
     15 H4          2.8850   -1.2960    4.9230 hn        1 MOL      0.332051
     16 H5          1.9350   -1.3570    2.1670 h1        1 MOL     -0.058373
     17 H6          4.6160   -0.9970    3.5450 hc        1 MOL      0.037210
     18 H7          3.4910    0.2810    3.1560 hc        1 MOL      0.037210
     19 N2          2.5690   -3.6540    1.2750 n         1 MOL     -0.240003
     20 C7          2.6350   -5.0830    0.9570 c3        1 MOL     -0.219221
     21 C8          3.6700   -5.1850   -0.2410 c         1 MOL      0.646116
     22 O5          4.3630   -6.1460   -0.4260 o         1 MOL     -0.603116
     23 C9          1.2960   -5.7780    0.6020 c3        1 MOL      0.132842
     24 C10         0.1710   -5.5490    1.6470 c3        1 MOL      0.034523
     25 C11         1.5000   -7.2920    0.3840 c3        1 MOL     -0.201222
     26 C12        -1.1530   -6.3800    1.5620 c3        1 MOL     -0.144065
     27 H8          1.7850   -3.1230    0.9220 hn        1 MOL      0.212910
     28 H9          3.0940   -5.5660    1.8160 h1        1 MOL      0.105924
     29 H10         0.9550   -5.3930   -0.3610 hc        1 MOL      0.019019
     30 H11        -0.1140   -4.4880    1.6540 hc        1 MOL      0.020071
     31 H12         0.4920   -5.7250    2.6660 hc        1 MOL      0.020071
     32 H13         2.0630   -7.6840    1.2280 hc        1 MOL      0.039525
     33 H14         0.6620   -7.9550    0.1800 hc        1 MOL      0.039525
     34 H15         2.1180   -7.4770   -0.4960 hc        1 MOL      0.039525
     35 H16        -1.7680   -6.0360    2.3940 hc        1 MOL      0.026846
     36 H17        -1.6420   -6.2720    0.5970 hc        1 MOL      0.026846
     37 H18        -0.9260   -7.4410    1.7090 hc        1 MOL      0.026846
     38 N3          3.8240   -4.1150   -1.0010 n         1 MOL     -0.311692
     39 C13         4.6520   -4.1290   -2.2120 c3        1 MOL     -0.186134
     40 C14         5.9990   -3.3250   -2.1480 c         1 MOL      0.472308
     41 O6          6.8410   -3.3950   -3.0770 o         1 MOL     -0.560713
     42 C15         3.9020   -3.8230   -3.5610 c3        1 MOL      0.102644
     43 C16         3.3090   -2.3870   -3.7200 c         1 MOL      0.553795
     44 O7          2.9970   -1.7380   -2.7140 o         1 MOL     -0.682398
     45 O8          3.1990   -1.9440   -4.9090 o         1 MOL     -0.682398
     46 H19         3.2030   -3.3270   -0.8730 hn        1 MOL      0.226750
     47 H20         5.0130   -5.1530   -2.3410 h1        1 MOL      0.115340
     48 H21         3.1830   -4.6230   -3.7510 hc        1 MOL     -0.008973
     49 H22         4.4830   -4.0790   -4.4520 hc        1 MOL     -0.008973
     50 N4          6.2490   -2.6330   -1.0430 n         1 MOL     -0.116716
     51 C17         7.5320   -2.1010   -0.6310 c3        1 MOL     -0.236384
     52 C18         7.8890   -0.8390   -1.3790 c         1 MOL      0.576962
     53 O9          9.0660   -0.6800   -1.7720 o         1 MOL     -0.613550
     54 H23         5.4280   -2.6730   -0.4520 hn        1 MOL      0.157606
     55 H24         8.2820   -2.8830   -0.7810 h1        1 MOL      0.106060
     56 H25         7.4720   -1.8400    0.4270 h1        1 MOL      0.106060
     57 N5          6.9820    0.1650   -1.4310 n         1 MOL     -0.213922
     58 C19         7.1720    1.5110   -2.0490 c3        1 MOL     -0.005138
     59 C20         7.2390    2.5560   -0.9950 c         1 MOL      0.380663
     60 O10         7.3780    3.7460   -1.4110 o         1 MOL     -0.543287
     61 C21         6.0490    1.8270   -2.9990 c3        1 MOL     -0.171742
     62 C22         4.6070    1.6690   -2.3740 c         1 MOL      0.894409
     63 O11         3.6320    1.5760   -3.1340 o         1 MOL     -0.814318
     64 O12         4.4440    1.5570   -1.1840 o         1 MOL     -0.814318
     65 H26         6.1000   -0.0850   -1.0210 hn        1 MOL      0.080156
     66 H27         8.0870    1.5020   -2.6400 h1        1 MOL      0.107249
     67 H28         6.1270    1.0720   -3.7840 hc        1 MOL      0.051811
     68 H29         6.1840    2.8140   -3.4380 hc        1 MOL      0.051811
     69 N6          7.0970    2.1940    0.3150 n         1 MOL     -0.234380
     70 C23         7.0720    3.0850    1.4630 c3        1 MOL     -0.251736
     71 C24         5.7290    3.7830    1.7080 c         1 MOL      0.636513
     72 O13         5.7750    4.7110    2.5220 o         1 MOL     -0.635290
     73 H30         6.7810    1.2510    0.4770 hn        1 MOL      0.220730
     74 H31         7.7770    3.8950    1.2850 h1        1 MOL      0.121228
     75 H32         7.1840    2.5230    2.3930 h1        1 MOL      0.121228
     76 N7          4.5860    3.4520    1.1020 n         1 MOL     -0.413312
     77 C25         3.2720    4.0840    1.2560 c3        1 MOL     -0.008308
     78 C26         2.1010    3.1070    1.2550 c         1 MOL      0.498171
     79 O14         2.1320    2.0900    0.5270 o         1 MOL     -0.697296
     80 C27         3.0290    5.2250    0.1970 c3        1 MOL      0.144220
     81 C28         3.8160    6.4580    0.6020 c3        1 MOL     -0.278477
     82 C29         3.4810    7.6060   -0.3540 c         1 MOL      0.650073
     83 N8          4.2950    8.1150   -1.2330 n         1 MOL     -0.777180
     84 O15         2.3670    8.0990   -0.3440 o         1 MOL     -0.584074
     85 H33         4.6360    2.7370    0.3930 hn        1 MOL      0.364523
     86 H34         3.2430    4.6250    2.2010 h1        1 MOL      0.067759
     87 H35         1.9760    5.5050    0.3160 hc        1 MOL      0.002244
     88 H36         3.2600    4.9140   -0.8310 hc        1 MOL      0.002244
     89 H37         4.8800    6.3180    0.4320 hc        1 MOL      0.083161
     90 H38         3.5400    6.7780    1.6080 hc        1 MOL      0.083161
     91 H39         5.2600    7.8280   -1.1870 hn        1 MOL      0.356288
     92 H40         3.9640    8.7260   -1.9740 hn        1 MOL      0.356288
     93 N9          1.1460    3.3000    2.1390 n         1 MOL     -0.295350
     94 C30        -0.0720    2.4590    2.2490 c3        1 MOL     -0.057322
     95 C31        -1.1510    2.9660    1.2490 c         1 MOL      0.425711
     96 O16        -1.5640    4.1270    1.2930 o         1 MOL     -0.594290
     97 C32        -0.6000    2.3780    3.6970 c3        1 MOL      0.099748
     98 C33        -1.7880    1.4640    3.7820 c3        1 MOL     -0.171516
     99 C34         0.5160    1.7860    4.6170 c3        1 MOL     -0.171516
    100 H41         1.1650    4.0630    2.8020 hn        1 MOL      0.247172
    101 H42         0.2640    1.4510    2.0050 h1        1 MOL      0.246860
    102 H43        -0.9230    3.3430    4.0900 hc        1 MOL      0.006606
    103 H44        -2.1890    1.3690    4.7960 hc        1 MOL      0.036312
    104 H45        -2.6270    1.8260    3.1890 hc        1 MOL      0.036312
    105 H46        -1.5390    0.4650    3.4320 hc        1 MOL      0.036312
    106 H47         0.9150    0.8770    4.1700 hc        1 MOL      0.036312
    107 H48         1.3870    2.4260    4.7410 hc        1 MOL      0.036312
    108 H49         0.1080    1.6280    5.6070 hc        1 MOL      0.036312
    109 N10        -1.6430    2.1330    0.3940 n         1 MOL     -0.004161
    110 C35        -2.6790    2.4250   -0.6000 c3        1 MOL      0.029027
    111 C36        -3.9900    2.0160    0.0640 c         1 MOL      0.422661
    112 O17        -3.9690    1.1210    0.9020 o         1 MOL     -0.307036
    113 C37        -2.3660    1.6280   -1.8210 c3        1 MOL     -0.506137
    114 C38        -3.4440    1.8880   -2.8130 c         1 MOL      0.739402
    115 N11        -3.6830    3.1530   -3.1200 n         1 MOL     -0.799448
    116 O18        -4.0980    0.9480   -3.2860 o         1 MOL     -0.512679
    117 H50        -1.2610    1.2030    0.4440 hn        1 MOL      0.018601
    118 H51        -2.7520    3.5030   -0.7320 h1        1 MOL      0.044778
    119 H52        -2.1210    0.5750   -1.6740 hc        1 MOL      0.182649
    120 H53        -1.4900    2.0830   -2.2750 hc        1 MOL      0.182649
    121 H54        -3.1280    3.8270   -2.6170 hn        1 MOL      0.368418
    122 H55        -4.2780    3.4840   -3.8760 hn        1 MOL      0.368418
    123 N12        -5.1300    2.5600   -0.4560 n         1 MOL     -0.528549
    124 C39        -6.4370    2.0820   -0.0680 c3        1 MOL      0.201729
    125 C40        -6.6430    0.5760   -0.0230 c         1 MOL      0.521244
    126 O19        -7.0470    0.0270    1.0210 o         1 MOL     -0.568963
    127 C41        -7.6010    2.6290   -0.9340 c3        1 MOL     -0.123701
    128 C42        -8.9040    2.1290   -0.3960 ca        1 MOL      0.003810
    129 C43        -9.4020    2.5810    0.8270 ca        1 MOL     -0.132548
    130 C44        -9.5870    1.1460   -1.1460 ca        1 MOL     -0.132548
    131 C45       -10.5320    2.0000    1.3660 ca        1 MOL     -0.277940
    132 C46       -10.8430    0.6600   -0.5620 ca        1 MOL     -0.277940
    133 C47       -11.3240    1.0680    0.6790 ca        1 MOL      0.379731
    134 O20       -12.5780    0.7510    1.1260 oh        1 MOL     -0.536056
    135 H56        -5.0920    3.1690   -1.2490 hn        1 MOL      0.269393
    136 H57        -6.7220    2.3680    0.9440 h1        1 MOL      0.013921
    137 H58        -7.3790    2.3380   -1.9600 hc        1 MOL      0.041814
    138 H59        -7.6640    3.7240   -0.8950 hc        1 MOL      0.041814
    139 H60        -8.8540    3.3540    1.3300 ha        1 MOL      0.136215
    140 H61        -9.1220    0.7510   -2.0360 ha        1 MOL      0.136215
    141 H62       -10.8440    2.3020    2.3570 ha        1 MOL      0.137196
    142 H63       -11.3610   -0.1340   -1.0720 ha        1 MOL      0.137196
    143 H64       -12.9690    0.0430    0.6050 ho        1 MOL      0.376631
    144 N13        -6.1770   -0.0790   -1.0750 n         1 MOL     -0.070290
    145 C48        -6.3200   -1.5140   -1.2120 c3        1 MOL     -0.065508
    146 C49        -5.3190   -2.3520   -0.3770 c         1 MOL      0.262118
    147 O21        -5.4800   -3.5730   -0.2330 o         1 MOL     -0.498858
    148 C50        -6.2190   -1.8400   -2.7390 c3        1 MOL      0.222241
    149 C51        -7.3130   -1.0990   -3.5060 c3        1 MOL     -0.182079
    150 C52        -7.3100   -1.4260   -4.9780 c         1 MOL      0.709664
    151 O22        -7.1800   -0.4840   -5.7720 o         1 MOL     -0.742452
    152 O23        -7.3820   -2.5860   -5.4040 o         1 MOL     -0.742452
    153 H65        -5.7190    0.4190   -1.8180 hn        1 MOL      0.170352
    154 H66        -7.3520   -1.7300   -0.9280 h1        1 MOL      0.067844
    155 H67        -6.3840   -2.8940   -2.9430 hc        1 MOL     -0.023655
    156 H68        -5.2480   -1.4950   -3.1000 hc        1 MOL     -0.023655
    157 H69        -7.2860   -0.0190   -3.3880 hc        1 MOL     -0.020375
    158 H70        -8.2680   -1.4080   -3.0920 hc        1 MOL     -0.020375
    159 N14        -4.3800   -1.7340    0.3200 n         1 MOL     -0.074617
    160 C53        -3.5640   -2.3130    1.3560 c3        1 MOL     -0.100060
    161 C54        -4.2460   -2.1410    2.7480 c         1 MOL      0.474316
    162 O24        -3.9620   -2.8120    3.7210 o         1 MOL     -0.569165
    163 C55        -2.1660   -1.7110    1.3160 c3        1 MOL      0.007501
    164 C56        -1.3770   -2.1570    0.0020 c3        1 MOL      0.068896
    165 C57        -0.0010   -1.4490   -0.0190 c         1 MOL      0.617769
    166 O25         1.0230   -2.0940   -0.3920 o         1 MOL     -0.752955
    167 O26         0.0930   -0.1810    0.0310 o         1 MOL     -0.752955
    168 H71        -4.1480   -0.8090   -0.0220 hn        1 MOL      0.028925
    169 H72        -3.4930   -3.3970    1.2510 h1        1 MOL      0.078173
    170 H73        -1.5720   -2.0990    2.1560 hc        1 MOL      0.061957
    171 H74        -2.3160   -0.6360    1.2920 hc        1 MOL      0.061957
    172 H75        -1.8770   -1.8630   -0.9230 hc        1 MOL      0.017894
    173 H76        -1.2540   -3.2360   -0.0990 hc        1 MOL      0.017894
    174 N15        -5.0580   -1.1210    2.8840 n         1 MOL     -0.047832
    175 C58        -5.7980   -0.6500    4.0390 c3        1 MOL     -0.245561
    176 H77        -6.1810    0.3520    3.8400 h1        1 MOL      0.090707
    177 H78        -6.6310   -1.3240    4.2370 h1        1 MOL      0.090707
    178 H79        -5.1390   -0.6200    4.9060 h1        1 MOL      0.090707
    179 H80        -4.9740   -0.4410    2.1470 hn        1 MOL      0.047013
    180 Ca1         2.2440    0.1920   -1.2130 Ca        1 MOL      1.773534
    181 O27         0.4030    0.6670   -3.3690 oh        1 MOL     -0.836308
    182 H81        -0.0950   -0.0180   -3.8200 ho        1 MOL      0.421515
    183 H82         1.1260    0.8710   -3.9620 ho        1 MOL      0.421515
@<TRIPOS>BOND
     1    1    2 1   
     2    1    4 1   
     3    1    5 1   
     4    1    6 1   
     5    2    3 2   
     6    2    7 1   
     7    7    8 1   
     8    7   15 1   
     9    8    9 1   
    10    8   11 1   
    11    8   16 1   
    12    9   10 2   
    13    9   19 1   
    14   11   12 1   
    15   11   17 1   
    16   11   18 1   
    17   12   13 1   
    18   12   14 1   
    19   19   20 1   
    20   19   27 1   
    21   20   21 1   
    22   20   23 1   
    23   20   28 1   
    24   21   22 2   
    25   21   38 1   
    26   23   24 1   
    27   23   25 1   
    28   23   29 1   
    29   24   26 1   
    30   24   30 1   
    31   24   31 1   
    32   25   32 1   
    33   25   33 1   
    34   25   34 1   
    35   26   35 1   
    36   26   36 1   
    37   26   37 1   
    38   38   39 1   
    39   38   46 1   
    40   39   40 1   
    41   39   42 1   
    42   39   47 1   
    43   40   41 2   
    44   40   50 1   
    45   42   43 1   
    46   42   48 1   
    47   42   49 1   
    48   43   44 1   
    49   43   45 1   
    50   50   51 1   
    51   50   54 1   
    52   51   52 1   
    53   51   55 1   
    54   51   56 1   
    55   52   53 2   
    56   52   57 1   
    57   57   58 1   
    58   57   65 1   
    59   58   59 1   
    60   58   61 1   
    61   58   66 1   
    62   59   60 2   
    63   59   69 1   
    64   61   62 1   
    65   61   67 1   
    66   61   68 1   
    67   62   63 1   
    68   62   64 1   
    69   69   70 1   
    70   69   73 1   
    71   70   71 1   
    72   70   74 1   
    73   70   75 1   
    74   71   72 2   
    75   71   76 1   
    76   76   77 1   
    77   76   85 1   
    78   77   78 1   
    79   77   80 1   
    80   77   86 1   
    81   78   79 2   
    82   78   93 1   
    83   80   81 1   
    84   80   87 1   
    85   80   88 1   
    86   81   82 1   
    87   81   89 1   
    88   81   90 1   
    89   82   83 1   
    90   82   84 2   
    91   83   91 1   
    92   83   92 1   
    93   93   94 1   
    94   93  100 1   
    95   94   95 1   
    96   94   97 1   
    97   94  101 1   
    98   95   96 2   
    99   95  109 1   
   100   97   98 1   
   101   97   99 1   
   102   97  102 1   
   103   98  103 1   
   104   98  104 1   
   105   98  105 1   
   106   99  106 1   
   107   99  107 1   
   108   99  108 1   
   109  109  110 1   
   110  109  117 1   
   111  110  111 1   
   112  110  113 1   
   113  110  118 1   
   114  111  112 2   
   115  111  123 1   
   116  113  114 1   
   117  113  119 1   
   118  113  120 1   
   119  114  115 1   
   120  114  116 2   
   121  115  121 1   
   122  115  122 1   
   123  123  124 1   
   124  123  135 1   
   125  124  125 1   
   126  124  127 1   
   127  124  136 1   
   128  125  126 2   
   129  125  144 1   
   130  127  128 1   
   131  127  137 1   
   132  127  138 1   
   133  128  129 ar  
   134  128  130 ar  
   135  129  131 ar  
   136  129  139 1   
   137  130  132 ar  
   138  130  140 1   
   139  131  133 ar  
   140  131  141 1   
   141  132  133 ar  
   142  132  142 1   
   143  133  134 1   
   144  134  143 1   
   145  144  145 1   
   146  144  153 1   
   147  145  146 1   
   148  145  148 1   
   149  145  154 1   
   150  146  147 2   
   151  146  159 1   
   152  148  149 1   
   153  148  155 1   
   154  148  156 1   
   155  149  150 1   
   156  149  157 1   
   157  149  158 1   
   158  150  151 1   
   159  150  152 1   
   160  159  160 1   
   161  159  168 1   
   162  160  161 1   
   163  160  163 1   
   164  160  169 1   
   165  161  162 2   
   166  161  174 1   
   167  163  164 1   
   168  163  170 1   
   169  163  171 1   
   170  164  165 1   
   171  164  172 1   
   172  164  173 1   
   173  165  166 1   
   174  165  167 1   
   175  174  175 1   
   176  174  179 1   
   177  175  176 1   
   178  175  177 1   
   179  175  178 1   
   180  181  182 1   
   181  181  183 1   
@<TRIPOS>SUBSTRUCTURE
     1 MOL         1 TEMP              0 ****  ****    0 ROOT
