@<TRIPOS>MOLECULE
MOL
  175   173     1     0     0
SMALL
resp


@<TRIPOS>ATOM
      1 C1         -0.4330   -3.6590    5.4710 c3        1 MOL     -0.382225
      2 C2          0.0520   -3.4320    4.0540 c         1 MOL      0.725234
      3 O1         -0.6010   -3.9300    3.1180 o         1 MOL     -0.578270
      4 H1         -1.5210   -3.6080    5.4950 hc        1 MOL      0.093444
      5 H2         -0.1090   -4.6420    5.8140 hc        1 MOL      0.093444
      6 H3         -0.0200   -2.8920    6.1250 hc        1 MOL      0.093444
      7 N1          1.1240   -2.6420    3.8650 n         1 MOL     -0.579223
      8 C3          1.6520   -2.3010    2.5230 c3        1 MOL      0.129813
      9 C4          2.1910   -3.5540    1.8180 c         1 MOL      0.496854
     10 O2          3.0240   -4.2910    2.3330 o         1 MOL     -0.598806
     11 C5          2.6340   -1.1630    2.5870 c3        1 MOL     -0.375882
     12 C6          3.1990   -0.5860    1.2490 c         1 MOL      0.994618
     13 O3          2.8240   -1.0570    0.1550 o         1 MOL     -0.882324
     14 O4          3.9690    0.4310    1.3430 o         1 MOL     -0.882324
     15 H4          1.6600   -2.2950    4.6540 hn        1 MOL      0.311022
     16 H5          0.9070   -1.8410    1.8700 h1        1 MOL      0.107172
     17 H6          3.5440   -1.4990    3.0830 hc        1 MOL      0.087867
     18 H7          2.1320   -0.3850    3.1530 hc        1 MOL      0.087867
     19 N2          1.7360   -3.8220    0.5820 n         1 MOL     -0.229059
     20 C7          2.1670   -4.9770   -0.1840 c3        1 MOL     -0.016373
     21 C8          3.5960   -4.8440   -0.6850 c         1 MOL      0.562107
     22 O5          4.1780   -5.7710   -1.1560 o         1 MOL     -0.588871
     23 C9          1.1510   -5.2260   -1.3240 c3        1 MOL      0.009125
     24 H8          1.0580   -3.1970    0.1580 hn        1 MOL      0.203215
     25 H9          2.1950   -5.8160    0.5050 h1        1 MOL      0.037185
     26 H10         0.1640   -5.4010   -0.8950 hc        1 MOL      0.011615
     27 H11         1.0650   -4.3740   -1.9960 hc        1 MOL      0.011615
     28 H12         1.3270   -6.1450   -1.8970 hc        1 MOL      0.011615
     29 N3          4.1550   -3.6600   -0.6460 n         1 MOL     -0.306933
     30 C10         5.3970   -3.3510   -1.4170 c3        1 MOL      0.018243
     31 C11         6.5030   -2.9930   -0.5130 c         1 MOL      0.360797
     32 O6          7.6750   -3.0650   -0.8380 o         1 MOL     -0.510162
     33 C12         5.0980   -2.2110   -2.4030 c3        1 MOL      0.104251
     34 C13         3.8050   -2.4860   -3.2220 c         1 MOL      0.516282
     35 O7          2.7380   -1.8900   -2.9110 o         1 MOL     -0.636008
     36 O8          3.8530   -3.4300   -3.9980 o         1 MOL     -0.636008
     37 H13         3.6330   -2.9400   -0.1740 hn        1 MOL      0.246318
     38 H14         5.6770   -4.1820   -2.0650 h1        1 MOL      0.116546
     39 H15         5.9220   -2.0660   -3.1050 hc        1 MOL     -0.055196
     40 H16         5.0040   -1.2410   -1.9110 hc        1 MOL     -0.055196
     41 N4          6.1170   -2.4210    0.6460 n         1 MOL     -0.183123
     42 C14         7.0490   -1.7660    1.5200 c3        1 MOL     -0.131225
     43 C15         7.3710   -0.2870    1.1490 c         1 MOL      0.434636
     44 O9          8.2360    0.3730    1.7850 o         1 MOL     -0.609525
     45 H17         5.1210   -2.3230    0.8160 hn        1 MOL      0.097020
     46 H18         7.9810   -2.3280    1.6370 h1        1 MOL      0.103715
     47 H19         6.5850   -1.7670    2.5080 h1        1 MOL      0.103715
     48 N5          6.7460    0.3650    0.1490 n         1 MOL     -0.008561
     49 C16         7.2480    1.6780   -0.2700 c3        1 MOL      0.092655
     50 C17         6.7280    2.8520    0.5530 c         1 MOL      0.424733
     51 O10         6.7480    4.0050    0.0900 o         1 MOL     -0.514975
     52 C18         7.0170    1.8430   -1.7520 c3        1 MOL     -0.468868
     53 C19         7.8850    0.9860   -2.5860 c         1 MOL      0.593310
     54 N6          7.3430    0.2970   -3.5680 n         1 MOL     -0.638824
     55 O11         9.0660    0.7170   -2.3440 o         1 MOL     -0.533824
     56 H20         6.0000   -0.0670   -0.3820 hn        1 MOL      0.159827
     57 H21         8.3360    1.6610   -0.1840 h1        1 MOL      0.091369
     58 H22         7.3080    2.8350   -2.0770 hc        1 MOL      0.131217
     59 H23         5.9620    1.8240   -2.0240 hc        1 MOL      0.131217
     60 H24         6.3530    0.4660   -3.6570 hn        1 MOL      0.324116
     61 H25         7.9160   -0.0280   -4.3410 hn        1 MOL      0.324116
     62 N7          6.0840    2.6530    1.7300 n         1 MOL     -0.247303
     63 C20         5.6350    3.7170    2.6260 c3        1 MOL     -0.267169
     64 C21         4.3560    4.4610    2.1550 c         1 MOL      0.490089
     65 O12         4.0590    5.6220    2.5360 o         1 MOL     -0.541534
     66 H26         6.0760    1.7550    2.1960 hn        1 MOL      0.274112
     67 H27         6.4360    4.4460    2.6830 h1        1 MOL      0.134917
     68 H28         5.6480    3.3520    3.6550 h1        1 MOL      0.134917
     69 N8          3.6770    3.8460    1.1310 n         1 MOL     -0.280581
     70 C22         2.4700    4.3210    0.5280 c3        1 MOL     -0.015296
     71 C23         1.3380    3.2790    0.5360 c         1 MOL      0.302667
     72 O13         1.4890    2.2480   -0.0960 o         1 MOL     -0.423194
     73 C24         2.7430    4.8550   -0.9520 c3        1 MOL      0.238095
     74 C25         3.6710    6.0830   -0.9890 c3        1 MOL     -0.326490
     75 O14         3.2830    3.9140   -1.8630 oh        1 MOL     -0.593132
     76 H29         4.1520    3.0580    0.7300 hn        1 MOL      0.325605
     77 H30         2.1800    5.2080    1.0790 h1        1 MOL      0.080931
     78 H31         1.7590    5.1370   -1.3320 h1        1 MOL      0.024714
     79 H32         2.9370    4.1420   -2.7330 ho        1 MOL      0.401967
     80 H33         4.6690    5.7860   -0.6570 hc        1 MOL      0.089195
     81 H34         3.7160    6.5240   -1.9810 hc        1 MOL      0.089195
     82 H35         3.2260    6.8950   -0.4050 hc        1 MOL      0.089195
     83 N9          0.1600    3.7490    0.9570 n         1 MOL     -0.236662
     84 C26        -0.9850    2.8640    1.2940 c3        1 MOL     -0.259417
     85 C27        -1.9940    3.0330    0.1040 c         1 MOL      0.560373
     86 O15        -2.4300    4.1380   -0.1810 o         1 MOL     -0.592677
     87 C28        -1.5070    3.1350    2.6930 c3        1 MOL      0.389890
     88 C29        -0.4220    2.7440    3.6870 c3        1 MOL     -0.225664
     89 C30        -2.8470    2.4010    2.8900 c3        1 MOL     -0.202110
     90 C31        -1.0190    2.8010    5.0710 c3        1 MOL     -0.142915
     91 H36         0.1210    4.6710    1.3670 hn        1 MOL      0.230881
     92 H37        -0.5650    1.8550    1.2370 h1        1 MOL      0.163726
     93 H38        -1.6970    4.2030    2.7630 hc        1 MOL     -0.040756
     94 H39         0.4650    3.3590    3.5150 hc        1 MOL      0.089059
     95 H40        -0.2500    1.6720    3.6380 hc        1 MOL      0.089059
     96 H41        -3.6020    2.6590    2.1490 hc        1 MOL      0.034201
     97 H42        -2.5990    1.3430    2.9200 hc        1 MOL      0.034201
     98 H43        -3.3250    2.7720    3.7930 hc        1 MOL      0.034201
     99 H44        -1.4210    3.8130    5.1820 hc        1 MOL      0.031364
    100 H45        -1.7510    1.9970    5.1010 hc        1 MOL      0.031364
    101 H46        -0.3300    2.6360    5.9020 hc        1 MOL      0.031364
    102 N10        -2.3080    1.9400   -0.5990 n         1 MOL     -0.130300
    103 C32        -3.3270    1.7910   -1.6400 c3        1 MOL     -0.001947
    104 C33        -4.6450    1.2860   -0.9960 c         1 MOL      0.429862
    105 O16        -4.7460    0.8000    0.1210 o         1 MOL     -0.291866
    106 C34        -2.8860    0.8670   -2.7210 c3        1 MOL     -0.246167
    107 C35        -1.5750    1.2120   -3.3980 c         1 MOL      0.723350
    108 O17        -1.5820    1.8960   -4.4260 o         1 MOL     -0.684765
    109 O18        -0.5020    0.6950   -3.0240 o         1 MOL     -0.684765
    110 H47        -1.8990    1.0770   -0.2610 hn        1 MOL     -0.089589
    111 H48        -3.5870    2.7820   -2.0340 h1        1 MOL      0.089595
    112 H49        -3.6350    0.8380   -3.5140 hc        1 MOL      0.091165
    113 H50        -2.7110   -0.0920   -2.2350 hc        1 MOL      0.091165
    114 N11        -5.8060    1.2750   -1.8070 n         1 MOL     -0.662417
    115 C36        -7.1310    0.9090   -1.3470 c3        1 MOL      0.626777
    116 C37        -7.2880   -0.4810   -0.7960 c         1 MOL      0.140697
    117 O19        -7.9020   -0.5330    0.3170 o         1 MOL     -0.492389
    118 C38        -8.2280    1.3270   -2.3470 c3        1 MOL     -0.454764
    119 C39        -9.5810    1.6710   -1.7210 ca        1 MOL      0.304098
    120 C40        -9.8830    2.8850   -1.0890 ca        1 MOL     -0.306008
    121 C41       -10.6270    0.7270   -1.8200 ca        1 MOL     -0.306008
    122 C42       -11.1040    3.0020   -0.3720 ca        1 MOL     -0.018482
    123 C43       -11.8330    0.9170   -1.1350 ca        1 MOL     -0.018482
    124 C44       -12.1230    2.0690   -0.4740 ca        1 MOL     -0.175061
    125 H51        -5.8030    1.7730   -2.6860 hn        1 MOL      0.308836
    126 H52        -7.3110    1.5700   -0.5050 h1        1 MOL     -0.012911
    127 H53        -8.5100    0.6270   -3.1290 hc        1 MOL      0.103379
    128 H54        -7.9320    2.3080   -2.7160 hc        1 MOL      0.103379
    129 H55        -9.1280    3.6410   -0.8780 ha        1 MOL      0.150937
    130 H56       -10.3850   -0.2270   -2.2630 ha        1 MOL      0.150937
    131 H57       -11.2710    3.8770    0.2300 ha        1 MOL      0.089598
    132 H58       -12.4670    0.0430   -1.1250 ha        1 MOL      0.089598
    133 H59       -13.0990    2.1950   -0.0430 ha        1 MOL      0.111078
    134 N12        -6.7310   -1.5830   -1.3750 n         1 MOL      0.040349
    135 C45        -6.6080   -2.9210   -0.7010 c3        1 MOL      0.051203
    136 C46        -5.8800   -2.9720    0.6680 c         1 MOL      0.281648
    137 O20        -6.2680   -3.6870    1.5420 o         1 MOL     -0.473411
    138 C47        -6.0240   -3.8020   -1.7630 c3        1 MOL     -0.064925
    139 C48        -6.4420   -3.1720   -3.0510 c3        1 MOL     -0.010388
    140 C49        -6.2330   -1.7000   -2.7610 c3        1 MOL      0.005070
    141 H60        -7.6330   -3.2620   -0.5990 h1        1 MOL      0.046809
    142 H61        -4.9460   -3.6330   -1.7900 hc        1 MOL      0.056255
    143 H62        -6.3550   -4.8190   -1.5730 hc        1 MOL      0.056255
    144 H63        -5.8900   -3.5530   -3.9170 hc        1 MOL      0.009412
    145 H64        -7.5220   -3.3410   -3.1120 hc        1 MOL      0.009412
    146 H65        -5.2000   -1.3690   -2.8580 h1        1 MOL      0.016223
    147 H66        -6.9210   -1.0530   -3.2950 h1        1 MOL      0.016223
    148 N13        -4.8300   -2.1910    0.8210 n         1 MOL     -0.170145
    149 C50        -4.0380   -1.9310    2.0030 c3        1 MOL      0.054324
    150 C51        -4.7550   -1.1390    3.1120 c         1 MOL      0.336325
    151 O21        -4.8090   -1.5860    4.2490 o         1 MOL     -0.524126
    152 C52        -2.7300   -1.2500    1.6260 c3        1 MOL     -0.113816
    153 C53        -2.1120   -1.8320    0.2900 c3        1 MOL     -0.097779
    154 C54        -0.6850   -1.3990   -0.0510 c         1 MOL      0.740027
    155 O22        -0.3510   -0.2450    0.1740 o         1 MOL     -0.733524
    156 O23         0.0020   -2.0900   -0.8000 o         1 MOL     -0.733524
    157 H67        -4.6210   -1.6200    0.0130 hn        1 MOL      0.102065
    158 H68        -3.8000   -2.9070    2.4180 h1        1 MOL      0.083902
    159 H69        -2.1420   -1.4860    2.5080 hc        1 MOL      0.072867
    160 H70        -2.9840   -0.2050    1.4350 hc        1 MOL      0.072867
    161 H71        -2.7540   -1.6520   -0.5650 hc        1 MOL      0.039247
    162 H72        -2.0660   -2.9210    0.4310 hc        1 MOL      0.039247
    163 N14        -5.5720   -0.1870    2.6080 n         1 MOL      0.075671
    164 C55        -6.4910    0.6440    3.3940 c3        1 MOL     -0.138362
    165 H73        -7.5150    0.3070    3.2280 h1        1 MOL      0.050073
    166 H74        -6.2470    0.5560    4.4520 h1        1 MOL      0.050073
    167 H75        -6.3970    1.6840    3.0840 h1        1 MOL      0.050073
    168 H76        -5.4400    0.1230    1.6630 hn        1 MOL      0.025292
    169 Ca1         1.4780    0.0650   -1.7140 Ca        1 MOL      1.726013
    170 O24         3.8240    1.1790   -1.3110 oh        1 MOL     -0.938284
    171 H77         3.9650    2.1210   -1.2720 ho        1 MOL      0.440294
    172 H78         4.0910    0.8490   -0.4610 ho        1 MOL      0.440294
    173 O25         2.1380    1.0440   -4.0070 oh        1 MOL     -0.938284
    174 H79         3.0720    1.1100   -4.1970 ho        1 MOL      0.440294
    175 H80         1.7150    1.5340   -4.7120 ho        1 MOL      0.440294
@<TRIPOS>BOND
     1    1    2 1   
     2    1    4 1   
     3    1    5 1   
     4    1    6 1   
     5    2    3 2   
     6    2    7 1   
     7    7    8 1   
     8    7   15 1   
     9    8    9 1   
    10    8   11 1   
    11    8   16 1   
    12    9   10 2   
    13    9   19 1   
    14   11   12 1   
    15   11   17 1   
    16   11   18 1   
    17   12   13 1   
    18   12   14 1   
    19   19   20 1   
    20   19   24 1   
    21   20   21 1   
    22   20   23 1   
    23   20   25 1   
    24   21   22 2   
    25   21   29 1   
    26   23   26 1   
    27   23   27 1   
    28   23   28 1   
    29   29   30 1   
    30   29   37 1   
    31   30   31 1   
    32   30   33 1   
    33   30   38 1   
    34   31   32 2   
    35   31   41 1   
    36   33   34 1   
    37   33   39 1   
    38   33   40 1   
    39   34   35 1   
    40   34   36 1   
    41   41   42 1   
    42   41   45 1   
    43   42   43 1   
    44   42   46 1   
    45   42   47 1   
    46   43   44 2   
    47   43   48 1   
    48   48   49 1   
    49   48   56 1   
    50   49   50 1   
    51   49   52 1   
    52   49   57 1   
    53   50   51 2   
    54   50   62 1   
    55   52   53 1   
    56   52   58 1   
    57   52   59 1   
    58   53   54 1   
    59   53   55 2   
    60   54   60 1   
    61   54   61 1   
    62   62   63 1   
    63   62   66 1   
    64   63   64 1   
    65   63   67 1   
    66   63   68 1   
    67   64   65 2   
    68   64   69 1   
    69   69   70 1   
    70   69   76 1   
    71   70   71 1   
    72   70   73 1   
    73   70   77 1   
    74   71   72 2   
    75   71   83 1   
    76   73   74 1   
    77   73   75 1   
    78   73   78 1   
    79   74   80 1   
    80   74   81 1   
    81   74   82 1   
    82   75   79 1   
    83   83   84 1   
    84   83   91 1   
    85   84   85 1   
    86   84   87 1   
    87   84   92 1   
    88   85   86 2   
    89   85  102 1   
    90   87   88 1   
    91   87   89 1   
    92   87   93 1   
    93   88   90 1   
    94   88   94 1   
    95   88   95 1   
    96   89   96 1   
    97   89   97 1   
    98   89   98 1   
    99   90   99 1   
   100   90  100 1   
   101   90  101 1   
   102  102  103 1   
   103  102  110 1   
   104  103  104 1   
   105  103  106 1   
   106  103  111 1   
   107  104  105 2   
   108  104  114 1   
   109  106  107 1   
   110  106  112 1   
   111  106  113 1   
   112  107  108 1   
   113  107  109 1   
   114  114  115 1   
   115  114  125 1   
   116  115  116 1   
   117  115  118 1   
   118  115  126 1   
   119  116  117 2   
   120  116  134 1   
   121  118  119 1   
   122  118  127 1   
   123  118  128 1   
   124  119  120 ar  
   125  119  121 ar  
   126  120  122 ar  
   127  120  129 1   
   128  121  123 ar  
   129  121  130 1   
   130  122  124 ar  
   131  122  131 1   
   132  123  124 ar  
   133  123  132 1   
   134  124  133 1   
   135  134  135 1   
   136  134  140 1   
   137  135  136 1   
   138  135  138 1   
   139  135  141 1   
   140  136  137 2   
   141  136  148 1   
   142  138  139 1   
   143  138  142 1   
   144  138  143 1   
   145  139  140 1   
   146  139  144 1   
   147  139  145 1   
   148  140  146 1   
   149  140  147 1   
   150  148  149 1   
   151  148  157 1   
   152  149  150 1   
   153  149  152 1   
   154  149  158 1   
   155  150  151 2   
   156  150  163 1   
   157  152  153 1   
   158  152  159 1   
   159  152  160 1   
   160  153  154 1   
   161  153  161 1   
   162  153  162 1   
   163  154  155 1   
   164  154  156 1   
   165  163  164 1   
   166  163  168 1   
   167  164  165 1   
   168  164  166 1   
   169  164  167 1   
   170  170  171 1   
   171  170  172 1   
   172  173  174 1   
   173  173  175 1   
@<TRIPOS>SUBSTRUCTURE
     1 MOL         1 TEMP              0 ****  ****    0 ROOT
