@<TRIPOS>MOLECULE
MOL
  189   185     1     0     0
SMALL
resp


@<TRIPOS>ATOM
      1 C1         -0.8730    1.6860    6.6450 c3        1 MOL     -0.251623
      2 C2         -1.0110    1.6190    5.1400 c         1 MOL      0.736777
      3 O1         -0.1540    2.0720    4.3930 o         1 MOL     -0.638726
      4 H1          0.1530    1.4490    6.9270 hc        1 MOL      0.063865
      5 H2         -1.1190    2.6910    6.9890 hc        1 MOL      0.063865
      6 H3         -1.5510    0.9670    7.1060 hc        1 MOL      0.063865
      7 N1         -2.1180    1.1400    4.6120 n         1 MOL     -0.605818
      8 C3         -2.5660    1.1750    3.1800 c3        1 MOL      0.247952
      9 C4         -2.7570    2.6600    2.8150 c         1 MOL      0.433641
     10 O2         -3.6870    3.3540    3.2800 o         1 MOL     -0.582357
     11 C5         -3.6910    0.2270    2.8570 c3        1 MOL     -0.213344
     12 C6         -4.1770    0.1930    1.3790 c         1 MOL      0.766537
     13 O3         -3.6620    0.9230    0.5120 o         1 MOL     -0.644788
     14 O4         -5.2020   -0.4730    1.1090 o         1 MOL     -0.644788
     15 H4         -2.8440    0.7640    5.2200 hn        1 MOL      0.318379
     16 H5         -1.8280    0.7830    2.4850 h1        1 MOL     -0.040476
     17 H6         -4.5230    0.3890    3.5410 hc        1 MOL      0.034550
     18 H7         -3.3590   -0.7960    3.0100 hc        1 MOL      0.034550
     19 N2         -1.9300    3.2300    1.9280 n         1 MOL     -0.038332
     20 C7         -1.9060    4.7260    1.6340 c3        1 MOL     -0.216171
     21 C8         -2.7570    5.1340    0.4190 c         1 MOL      0.588078
     22 O5         -2.8760    6.3230    0.1620 o         1 MOL     -0.600186
     23 C9         -0.4010    5.1310    1.5140 c3        1 MOL     -0.147826
     24 C10         0.3450    5.0250    0.1360 c3        1 MOL      0.209361
     25 C11         1.8730    5.2410    0.2900 c3        1 MOL     -0.117187
     26 C12         2.2720    6.7350    0.2180 c3        1 MOL     -0.058852
     27 N3          1.8590    7.5110   -1.0050 n4        1 MOL     -0.294453
     28 H8         -1.1740    2.6560    1.5580 hn        1 MOL      0.164096
     29 H9         -2.3320    5.3020    2.4630 h1        1 MOL      0.141671
     30 H10         0.2340    4.6810    2.2730 hc        1 MOL      0.072276
     31 H11        -0.3180    6.2020    1.7050 hc        1 MOL      0.072276
     32 H12        -0.0340    5.7570   -0.5630 hc        1 MOL     -0.038359
     33 H13         0.2810    4.1060   -0.4490 hc        1 MOL     -0.038359
     34 H14         2.4300    4.7200   -0.4870 hc        1 MOL      0.072818
     35 H15         2.2010    4.8260    1.2410 hc        1 MOL      0.072818
     36 H16         3.3360    6.7800    0.4840 hx        1 MOL      0.098316
     37 H17         1.7310    7.2480    1.0080 hx        1 MOL      0.098316
     38 H18         0.8870    7.5140   -1.2500 hn        1 MOL      0.310968
     39 H19         2.2150    8.4350   -0.7970 hn        1 MOL      0.310968
     40 H20         2.2550    7.2490   -1.8920 hn        1 MOL      0.310968
     41 N4         -3.2890    4.1950   -0.3510 n         1 MOL     -0.336639
     42 C13        -4.2100    4.4220   -1.4030 c3        1 MOL      0.034875
     43 C14        -5.4820    3.6440   -1.2200 c         1 MOL      0.468441
     44 O6         -6.3570    3.8890   -2.0220 o         1 MOL     -0.558681
     45 C15        -3.4920    4.2040   -2.8160 c3        1 MOL     -0.319603
     46 C16        -2.4900    3.0480   -2.8710 c         1 MOL      0.813312
     47 O7         -2.6780    1.9900   -2.1940 o         1 MOL     -0.717006
     48 O8         -1.5520    3.0840   -3.6600 o         1 MOL     -0.717006
     49 H21        -3.0300    3.2570   -0.0940 hn        1 MOL      0.131381
     50 H22        -4.6380    5.4260   -1.3900 h1        1 MOL      0.121480
     51 H23        -3.0180    5.0990   -3.2100 hc        1 MOL      0.090582
     52 H24        -4.2240    3.9180   -3.5720 hc        1 MOL      0.090582
     53 N5         -5.7160    2.7630   -0.2650 n         1 MOL     -0.247648
     54 C17        -7.0970    2.2440   -0.1100 c3        1 MOL     -0.238336
     55 C18        -7.4390    1.0850   -1.0100 c         1 MOL      0.581998
     56 O9         -8.6200    0.8850   -1.2350 o         1 MOL     -0.595280
     57 H25        -4.9480    2.4550    0.3080 hn        1 MOL      0.220811
     58 H26        -7.7920    3.0030   -0.4710 h1        1 MOL      0.126087
     59 H27        -7.2930    1.9740    0.9220 h1        1 MOL      0.126087
     60 N6         -6.5030    0.2900   -1.5190 n         1 MOL     -0.177464
     61 C19        -6.7140   -0.8180   -2.4340 c3        1 MOL     -0.081912
     62 C20        -6.9470   -2.0960   -1.6590 c         1 MOL      0.467213
     63 O10        -7.2710   -3.1090   -2.2260 o         1 MOL     -0.543998
     64 C21        -5.6260   -1.0220   -3.4940 c3        1 MOL     -0.154002
     65 C22        -4.2080   -1.2140   -2.9850 c         1 MOL      0.716493
     66 O11        -4.1450   -1.2720   -1.7510 o         1 MOL     -0.725497
     67 O12        -3.1740   -1.0710   -3.6990 o         1 MOL     -0.725497
     68 H28        -5.5500    0.4900   -1.2570 hn        1 MOL      0.180303
     69 H29        -7.6680   -0.5850   -2.9120 h1        1 MOL      0.128626
     70 H30        -5.6740   -0.2100   -4.2220 hc        1 MOL      0.058339
     71 H31        -5.8310   -1.9080   -4.1060 hc        1 MOL      0.058339
     72 N7         -6.8350   -2.1750   -0.3500 n         1 MOL     -0.165720
     73 C23        -6.9860   -3.3670    0.4830 c3        1 MOL     -0.357665
     74 C24        -5.7540   -4.2940    0.6890 c         1 MOL      0.564618
     75 O13        -5.8310   -5.4010    1.2370 o         1 MOL     -0.552275
     76 H32        -6.4150   -1.3860    0.1380 hn        1 MOL      0.191643
     77 H33        -7.8330   -3.9250    0.0810 h1        1 MOL      0.151067
     78 H34        -7.2110   -2.9510    1.4640 h1        1 MOL      0.151067
     79 N8         -4.6130   -3.7420    0.2460 n         1 MOL     -0.077647
     80 C25        -3.2390   -4.3900    0.2120 c3        1 MOL     -0.500205
     81 C26        -2.0280   -3.4530    0.4710 c         1 MOL      0.911718
     82 O14        -2.0790   -2.2300    0.3680 o         1 MOL     -0.694449
     83 C27        -3.0030   -5.1440   -1.1090 c3        1 MOL      0.498936
     84 C28        -4.0220   -6.2290   -1.2600 c3        1 MOL     -0.493814
     85 O15        -3.0950   -4.2760   -2.1980 oh        1 MOL     -0.627653
     86 H35        -4.6570   -2.7770   -0.0530 hn        1 MOL      0.112189
     87 H36        -3.1360   -4.9800    1.1250 h1        1 MOL      0.148718
     88 H37        -2.0560   -5.6890   -1.0590 h1        1 MOL      0.024566
     89 H38        -3.6900   -3.5420   -2.0280 ho        1 MOL      0.439596
     90 H39        -5.0250   -5.7970   -1.2650 hc        1 MOL      0.129113
     91 H40        -3.6550   -6.8900   -2.0400 hc        1 MOL      0.129113
     92 H41        -4.1180   -6.7640   -0.3130 hc        1 MOL      0.129113
     93 N9         -0.9130   -4.1330    0.8740 n         1 MOL     -0.659078
     94 C29         0.3240   -3.5510    1.3200 c3        1 MOL      0.127318
     95 C30         1.4340   -3.8570    0.2410 c         1 MOL      0.470191
     96 O16         1.5970   -4.9440   -0.2240 o         1 MOL     -0.533110
     97 C31         0.6940   -4.0670    2.7500 c3        1 MOL      0.062246
     98 C32        -0.3540   -3.5920    3.8000 c3        1 MOL     -0.215952
     99 C33         2.1330   -3.6640    3.1890 c3        1 MOL     -0.039161
    100 C34        -0.7280   -2.1150    3.7560 c3        1 MOL      0.175483
    101 H42        -1.0770   -5.1280    0.9340 hn        1 MOL      0.303941
    102 H43         0.2150   -2.4700    1.3210 h1        1 MOL      0.110940
    103 H44         0.8590   -5.1350    2.8500 hc        1 MOL      0.022096
    104 H45         0.0090   -3.7810    4.8040 hc        1 MOL      0.062712
    105 H46        -1.3000   -4.1260    3.7150 hc        1 MOL      0.062712
    106 H47         2.9840   -3.9490    2.5710 hc        1 MOL     -0.010679
    107 H48         2.2090   -2.5740    3.1960 hc        1 MOL     -0.010679
    108 H49         2.2050   -3.9460    4.2370 hc        1 MOL     -0.010679
    109 H50        -1.3120   -1.9100    4.6610 hc        1 MOL     -0.038750
    110 H51         0.1310   -1.4420    3.8160 hc        1 MOL     -0.038750
    111 H52        -1.3600   -1.7780    2.9340 hc        1 MOL     -0.038750
    112 N10         2.1680   -2.7990   -0.2590 n         1 MOL     -0.021321
    113 C35         3.2750   -2.7880   -1.2040 c3        1 MOL     -0.195286
    114 C36         4.6700   -2.7020   -0.5460 c         1 MOL      0.476128
    115 O17         4.6700   -2.5160    0.6930 o         1 MOL     -0.354826
    116 C37         3.2060   -1.6190   -2.1800 c3        1 MOL      0.242077
    117 C38         2.1420   -1.7530   -3.2200 c3        1 MOL     -0.424097
    118 O18         2.9530   -0.3510   -1.4970 oh        1 MOL     -0.601676
    119 H53         1.9200   -1.9170    0.1710 hn        1 MOL     -0.006624
    120 H54         3.1630   -3.6090   -1.9080 h1        1 MOL      0.108654
    121 H55         4.2100   -1.4920   -2.6080 h1        1 MOL      0.006475
    122 H56         2.0460   -0.4440   -1.1790 ho        1 MOL      0.399071
    123 H57         2.1880   -0.9450   -3.9510 hc        1 MOL      0.126910
    124 H58         2.2170   -2.6830   -3.7860 hc        1 MOL      0.126910
    125 H59         1.1900   -1.6040   -2.7260 hc        1 MOL      0.126910
    126 N11         5.8120   -2.8670   -1.2430 n         1 MOL     -0.452837
    127 C39         7.1220   -2.6120   -0.6680 c3        1 MOL     -0.106418
    128 C40         7.3050   -1.3510    0.1150 c         1 MOL      0.119963
    129 O19         7.9160   -1.3570    1.1630 o         1 MOL     -0.426922
    130 C41         8.1810   -2.6430   -1.7000 c3        1 MOL      0.273533
    131 C42         8.4130   -4.0130   -2.2920 c3        1 MOL     -0.505109
    132 O20         7.9300   -1.7260   -2.7490 oh        1 MOL     -0.580573
    133 H60         5.7170   -2.9390   -2.2470 hn        1 MOL      0.317873
    134 H61         7.1470   -3.4280    0.0660 h1        1 MOL      0.175070
    135 H62         9.1550   -2.3220   -1.3150 h1        1 MOL      0.077306
    136 H63         8.8170   -1.3780   -2.8560 ho        1 MOL      0.331598
    137 H64         9.3520   -4.0420   -2.8330 hc        1 MOL      0.150420
    138 H65         8.5690   -4.7330   -1.4820 hc        1 MOL      0.150420
    139 H66         7.6860   -4.3670   -3.0200 hc        1 MOL      0.150420
    140 N12         6.8720   -0.2400   -0.4640 n         1 MOL      0.025221
    141 C43         7.0110    1.1140    0.1490 c3        1 MOL     -0.074124
    142 C44         6.0540    1.3640    1.2730 c         1 MOL      0.358786
    143 O21         6.5040    1.9230    2.2290 o         1 MOL     -0.468647
    144 C45         6.8720    2.2810   -0.9100 c3        1 MOL     -0.152618
    145 C46         8.0620    2.1590   -1.8700 c3        1 MOL     -0.231379
    146 C47         7.8260    2.9750   -3.0990 c3        1 MOL      0.183988
    147 C48         9.0920    2.9010   -4.0400 c3        1 MOL     -0.214144
    148 N13         9.0180    1.6770   -4.8570 n4        1 MOL     -0.337911
    149 H67         6.4610   -0.3630   -1.3800 hn        1 MOL      0.244156
    150 H68         8.0180    1.2480    0.5570 h1        1 MOL      0.110664
    151 H69         6.9770    3.2920   -0.5330 hc        1 MOL      0.087833
    152 H70         5.9290    2.2510   -1.4520 hc        1 MOL      0.087833
    153 H71         8.1380    1.1550   -2.2700 hc        1 MOL      0.077895
    154 H72         8.9460    2.5810   -1.4040 hc        1 MOL      0.077895
    155 H73         7.5530    4.0160   -2.9400 hc        1 MOL      0.002146
    156 H74         6.9300    2.6860   -3.6490 hc        1 MOL      0.002146
    157 H75         9.9790    3.1410   -3.4560 hx        1 MOL      0.153370
    158 H76         8.9530    3.7660   -4.6980 hx        1 MOL      0.153370
    159 H77         9.4960    1.8600   -5.7340 hn        1 MOL      0.308049
    160 H78         9.5970    1.0090   -4.3610 hn        1 MOL      0.308049
    161 H79         8.0860    1.2710   -4.8760 hn        1 MOL      0.308049
    162 N14         4.8500    0.7680    1.2400 n         1 MOL     -0.190556
    163 C49         3.9670    0.7960    2.4130 c3        1 MOL     -0.196140
    164 C50         4.5260   -0.0250    3.6000 c         1 MOL      0.483550
    165 O22         4.5810    0.4330    4.6850 o         1 MOL     -0.518485
    166 C51         2.5030    0.4580    2.0080 c3        1 MOL      0.248775
    167 C52         1.8110    1.4520    0.9220 c3        1 MOL     -0.002379
    168 C53         0.5260    0.7510    0.3190 c         1 MOL      0.744097
    169 O23         0.6490   -0.3060   -0.2770 o         1 MOL     -0.715466
    170 O24        -0.5850    1.3550    0.3970 o         1 MOL     -0.715466
    171 H80         4.6290    0.4130    0.3190 hn        1 MOL      0.159280
    172 H81         3.7420    1.7880    2.7950 h1        1 MOL      0.114507
    173 H82         1.9050    0.4240    2.9140 hc        1 MOL     -0.020497
    174 H83         2.5810   -0.5210    1.5370 hc        1 MOL     -0.020497
    175 H84         2.4770    1.6480    0.0820 hc        1 MOL     -0.060385
    176 H85         1.6000    2.3910    1.4330 hc        1 MOL     -0.060385
    177 N15         5.1530   -1.2010    3.2780 n         1 MOL     -0.052319
    178 C54         5.8660   -2.0320    4.2480 c3        1 MOL     -0.293632
    179 H86         6.8810   -2.2140    3.8940 h1        1 MOL      0.102787
    180 H87         5.9040   -1.5190    5.2090 h1        1 MOL      0.102787
    181 H88         5.3460   -2.9830    4.3640 h1        1 MOL      0.102787
    182 H89         5.1520   -1.5120    2.3090 hn        1 MOL      0.163894
    183 Ca1        -1.8880   -0.2240   -1.2910 Ca        1 MOL      1.779881
    184 O25        -0.1530    0.8660   -2.9990 oh        1 MOL     -0.876384
    185 H90        -0.6700    1.6340   -3.2540 ho        1 MOL      0.399056
    186 H91         0.7550    1.1110   -3.1790 ho        1 MOL      0.399056
    187 O26        -1.0700   -2.6870   -2.3100 oh        1 MOL     -0.876384
    188 H92        -1.5070   -3.5380   -2.1890 ho        1 MOL      0.399056
    189 H93        -1.0970   -2.5380   -3.2490 ho        1 MOL      0.399056
@<TRIPOS>BOND
     1    1    2 1   
     2    1    4 1   
     3    1    5 1   
     4    1    6 1   
     5    2    3 2   
     6    2    7 1   
     7    7    8 1   
     8    7   15 1   
     9    8    9 1   
    10    8   11 1   
    11    8   16 1   
    12    9   10 2   
    13    9   19 1   
    14   11   12 1   
    15   11   17 1   
    16   11   18 1   
    17   12   13 1   
    18   12   14 1   
    19   19   20 1   
    20   19   28 1   
    21   20   21 1   
    22   20   23 1   
    23   20   29 1   
    24   21   22 2   
    25   21   41 1   
    26   23   24 1   
    27   23   30 1   
    28   23   31 1   
    29   24   25 1   
    30   24   32 1   
    31   24   33 1   
    32   25   26 1   
    33   25   34 1   
    34   25   35 1   
    35   26   27 1   
    36   26   36 1   
    37   26   37 1   
    38   27   38 1   
    39   27   39 1   
    40   27   40 1   
    41   41   42 1   
    42   41   49 1   
    43   42   43 1   
    44   42   45 1   
    45   42   50 1   
    46   43   44 2   
    47   43   53 1   
    48   45   46 1   
    49   45   51 1   
    50   45   52 1   
    51   46   47 1   
    52   46   48 1   
    53   53   54 1   
    54   53   57 1   
    55   54   55 1   
    56   54   58 1   
    57   54   59 1   
    58   55   56 2   
    59   55   60 1   
    60   60   61 1   
    61   60   68 1   
    62   61   62 1   
    63   61   64 1   
    64   61   69 1   
    65   62   63 2   
    66   62   72 1   
    67   64   65 1   
    68   64   70 1   
    69   64   71 1   
    70   65   66 1   
    71   65   67 1   
    72   72   73 1   
    73   72   76 1   
    74   73   74 1   
    75   73   77 1   
    76   73   78 1   
    77   74   75 2   
    78   74   79 1   
    79   79   80 1   
    80   79   86 1   
    81   80   81 1   
    82   80   83 1   
    83   80   87 1   
    84   81   82 2   
    85   81   93 1   
    86   83   84 1   
    87   83   85 1   
    88   83   88 1   
    89   84   90 1   
    90   84   91 1   
    91   84   92 1   
    92   85   89 1   
    93   93   94 1   
    94   93  101 1   
    95   94   95 1   
    96   94   97 1   
    97   94  102 1   
    98   95   96 2   
    99   95  112 1   
   100   97   98 1   
   101   97   99 1   
   102   97  103 1   
   103   98  100 1   
   104   98  104 1   
   105   98  105 1   
   106   99  106 1   
   107   99  107 1   
   108   99  108 1   
   109  100  109 1   
   110  100  110 1   
   111  100  111 1   
   112  112  113 1   
   113  112  119 1   
   114  113  114 1   
   115  113  116 1   
   116  113  120 1   
   117  114  115 2   
   118  114  126 1   
   119  116  117 1   
   120  116  118 1   
   121  116  121 1   
   122  117  123 1   
   123  117  124 1   
   124  117  125 1   
   125  118  122 1   
   126  126  127 1   
   127  126  133 1   
   128  127  128 1   
   129  127  130 1   
   130  127  134 1   
   131  128  129 2   
   132  128  140 1   
   133  130  131 1   
   134  130  132 1   
   135  130  135 1   
   136  131  137 1   
   137  131  138 1   
   138  131  139 1   
   139  132  136 1   
   140  140  141 1   
   141  140  149 1   
   142  141  142 1   
   143  141  144 1   
   144  141  150 1   
   145  142  143 2   
   146  142  162 1   
   147  144  145 1   
   148  144  151 1   
   149  144  152 1   
   150  145  146 1   
   151  145  153 1   
   152  145  154 1   
   153  146  147 1   
   154  146  155 1   
   155  146  156 1   
   156  147  148 1   
   157  147  157 1   
   158  147  158 1   
   159  148  159 1   
   160  148  160 1   
   161  148  161 1   
   162  162  163 1   
   163  162  171 1   
   164  163  164 1   
   165  163  166 1   
   166  163  172 1   
   167  164  165 2   
   168  164  177 1   
   169  166  167 1   
   170  166  173 1   
   171  166  174 1   
   172  167  168 1   
   173  167  175 1   
   174  167  176 1   
   175  168  169 1   
   176  168  170 1   
   177  177  178 1   
   178  177  182 1   
   179  178  179 1   
   180  178  180 1   
   181  178  181 1   
   182  184  185 1   
   183  184  186 1   
   184  187  188 1   
   185  187  189 1   
@<TRIPOS>SUBSTRUCTURE
     1 MOL         1 TEMP              0 ****  ****    0 ROOT
