@<TRIPOS>MOLECULE
MOL
  175   173     1     0     0
SMALL
resp


@<TRIPOS>ATOM
      1 C1          0.2030    3.5090    5.8810 c3        1 MOL     -0.390031
      2 C2         -0.3340    3.6120    4.4640 c         1 MOL      0.698706
      3 O1          0.4940    3.8960    3.5990 o         1 MOL     -0.546138
      4 H1          0.3150    4.5090    6.3000 hc        1 MOL      0.094469
      5 H2         -0.4940    2.9350    6.4930 hc        1 MOL      0.094469
      6 H3          1.1720    3.0100    5.8670 hc        1 MOL      0.094469
      7 N1         -1.6080    3.3680    4.1920 n         1 MOL     -0.616834
      8 C3         -2.0630    3.2180    2.8520 c3        1 MOL      0.164567
      9 C4         -2.1030    4.4950    1.9310 c         1 MOL      0.637769
     10 O2         -2.1550    5.5910    2.4790 o         1 MOL     -0.584186
     11 C5         -3.4890    2.6700    2.9170 c3        1 MOL     -0.219570
     12 C6         -4.2100    2.5530    1.5380 c         1 MOL      0.659425
     13 O3         -3.6080    1.8920    0.6930 o         1 MOL     -0.631695
     14 O4         -5.1910    3.2360    1.2830 o         1 MOL     -0.631695
     15 H4         -2.2150    3.3530    4.9940 hn        1 MOL      0.326647
     16 H5         -1.4620    2.4470    2.3720 h1        1 MOL      0.095904
     17 H6         -4.1660    3.2480    3.5540 hc        1 MOL      0.017794
     18 H7         -3.4400    1.6510    3.2880 hc        1 MOL      0.017794
     19 N2         -2.0470    4.3920    0.5970 n         1 MOL     -0.602507
     20 C7         -2.2110    5.4830   -0.4440 c3        1 MOL      0.454059
     21 C8         -3.1480    5.1350   -1.5430 c         1 MOL      0.383511
     22 O5         -3.2900    5.9570   -2.4290 o         1 MOL     -0.581108
     23 C9         -0.8740    5.8680   -1.0620 c3        1 MOL     -0.125231
     24 H8         -2.0510    3.4580    0.2060 hn        1 MOL      0.255477
     25 H9         -2.5620    6.4360   -0.0430 h1        1 MOL     -0.022040
     26 H10        -0.3670    4.9910   -1.4870 hc        1 MOL      0.021819
     27 H11        -0.8810    6.7110   -1.7460 hc        1 MOL      0.021819
     28 H12        -0.2750    6.2080   -0.2130 hc        1 MOL      0.021819
     29 N3         -3.7770    3.9620   -1.5770 n         1 MOL     -0.217379
     30 C10        -4.5990    3.4970   -2.7970 c3        1 MOL      0.051755
     31 C11        -5.8290    2.6010   -2.4900 c         1 MOL      0.378330
     32 O6         -6.7060    2.3680   -3.3690 o         1 MOL     -0.564426
     33 C12        -3.6640    2.6810   -3.7290 c3        1 MOL     -0.230438
     34 C13        -3.1440    1.3520   -3.1680 c         1 MOL      0.734535
     35 O7         -2.1480    0.8510   -3.6750 o         1 MOL     -0.694998
     36 O8         -3.6450    0.7710   -2.2210 o         1 MOL     -0.694998
     37 H13        -3.7550    3.3750   -0.7490 hn        1 MOL      0.081005
     38 H14        -5.0260    4.3330   -3.3620 h1        1 MOL      0.084813
     39 H15        -2.8220    3.3160   -3.9790 hc        1 MOL      0.065112
     40 H16        -4.1730    2.3890   -4.6500 hc        1 MOL      0.065112
     41 N4         -5.9280    2.1690   -1.2440 n         1 MOL     -0.134192
     42 C14        -7.1210    1.4610   -0.7880 c3        1 MOL     -0.145666
     43 C15        -7.2490   -0.0290   -1.0880 c         1 MOL      0.499315
     44 O9         -8.2760   -0.6400   -0.7780 o         1 MOL     -0.626059
     45 H17        -5.1580    2.2890   -0.6050 hn        1 MOL      0.135323
     46 H18        -8.0290    1.8750   -1.2130 h1        1 MOL      0.085907
     47 H19        -7.1820    1.5800    0.3010 h1        1 MOL      0.085907
     48 N5         -6.1800   -0.6180   -1.4790 n         1 MOL     -0.226941
     49 C16        -6.2160   -1.9930   -1.9950 c3        1 MOL      0.050199
     50 C17        -6.2610   -3.0920   -0.9290 c         1 MOL      0.412993
     51 O10        -6.3800   -4.2520   -1.3620 o         1 MOL     -0.523317
     52 C18        -5.0960   -2.1740   -3.0450 c3        1 MOL     -0.270037
     53 C19        -3.6930   -2.3190   -2.4780 c         1 MOL      0.641986
     54 N6         -2.7120   -2.5140   -3.3870 n         1 MOL     -0.640822
     55 O11        -3.4460   -2.2320   -1.2800 o         1 MOL     -0.556144
     56 H20        -5.4330   -0.0360   -1.8230 hn        1 MOL      0.241545
     57 H21        -7.1200   -2.0740   -2.6100 h1        1 MOL      0.086489
     58 H22        -5.2120   -1.4130   -3.8190 hc        1 MOL      0.088665
     59 H23        -5.3520   -3.1630   -3.4200 hc        1 MOL      0.088665
     60 H24        -2.9850   -2.7240   -4.3360 hn        1 MOL      0.321704
     61 H25        -1.7190   -2.4380   -3.2050 hn        1 MOL      0.321704
     62 N7         -6.0930   -2.7340    0.3680 n         1 MOL     -0.189404
     63 C20        -6.0960   -3.7420    1.4890 c3        1 MOL     -0.394706
     64 C21        -4.7840   -4.4820    1.7980 c         1 MOL      0.555969
     65 O12        -4.6770   -5.3110    2.7450 o         1 MOL     -0.581411
     66 H26        -6.0050   -1.7780    0.6630 hn        1 MOL      0.244196
     67 H27        -6.8690   -4.4630    1.2460 h1        1 MOL      0.154386
     68 H28        -6.3410   -3.2490    2.4300 h1        1 MOL      0.154386
     69 N8         -3.8010   -4.1320    0.9860 n         1 MOL     -0.257830
     70 C22        -2.4210   -4.6480    1.2190 c3        1 MOL     -0.021512
     71 C23        -1.4840   -3.5370    1.4820 c         1 MOL      0.351298
     72 O13        -1.7110   -2.4730    0.9040 o         1 MOL     -0.418201
     73 C24        -1.8830   -5.4900   -0.0180 c3        1 MOL      0.452433
     74 C25        -2.4890   -6.8710   -0.1370 c3        1 MOL     -0.499603
     75 O14        -2.1560   -4.7770   -1.2040 oh        1 MOL     -0.544274
     76 H29        -3.9970   -3.5750    0.1670 hn        1 MOL      0.269689
     77 H30        -2.3630   -5.2520    2.1270 h1        1 MOL      0.057006
     78 H31        -0.7930   -5.5460    0.0710 h1        1 MOL     -0.006251
     79 H32        -2.1840   -3.8430   -0.9630 ho        1 MOL      0.258886
     80 H33        -2.5430   -7.4360    0.7930 hc        1 MOL      0.124419
     81 H34        -3.5190   -6.7060   -0.4570 hc        1 MOL      0.124419
     82 H35        -1.9080   -7.4220   -0.8800 hc        1 MOL      0.124419
     83 N9         -0.3230   -3.7870    2.1490 n         1 MOL     -0.394334
     84 C26         0.7330   -2.8080    2.1220 c3        1 MOL     -0.099376
     85 C27         1.6700   -3.0890    0.9000 c         1 MOL      0.531122
     86 O15         2.1580   -4.2000    0.7300 o         1 MOL     -0.586562
     87 C28         1.5190   -2.7390    3.4990 c3        1 MOL      0.232874
     88 C29         0.5930   -2.5820    4.6430 c3        1 MOL      0.253181
     89 C30         2.5400   -1.5470    3.5010 c3        1 MOL     -0.280443
     90 C31         1.2400   -2.5620    5.9890 c3        1 MOL     -0.259005
     91 H36        -0.0700   -4.7500    2.3250 hn        1 MOL      0.274106
     92 H37         0.3890   -1.7710    2.0170 h1        1 MOL      0.093021
     93 H38         2.0550   -3.6710    3.5980 hc        1 MOL     -0.046900
     94 H39        -0.0740   -3.4390    4.5950 hc        1 MOL     -0.082085
     95 H40        -0.0280   -1.6920    4.5250 hc        1 MOL     -0.082085
     96 H41         3.1250   -1.5530    2.5860 hc        1 MOL      0.051805
     97 H42         1.9130   -0.6550    3.4720 hc        1 MOL      0.051805
     98 H43         3.3020   -1.6000    4.2720 hc        1 MOL      0.051805
     99 H44         2.1100   -3.2200    5.9390 hc        1 MOL      0.047375
    100 H45         1.5680   -1.5420    6.1870 hc        1 MOL      0.047375
    101 H46         0.5690   -2.9420    6.7600 hc        1 MOL      0.047375
    102 N10         1.7340   -2.0900   -0.0000 n         1 MOL     -0.068552
    103 C32         2.6380   -1.9740   -1.2020 c3        1 MOL     -0.151113
    104 C33         4.0790   -1.5680   -0.7930 c         1 MOL      0.516148
    105 O16         4.2930   -0.9830    0.2950 o         1 MOL     -0.415112
    106 C34         2.0330   -1.0210   -2.2170 c3        1 MOL     -0.141977
    107 C35         0.6280   -1.4000   -2.5710 c         1 MOL      0.620394
    108 O17        -0.3080   -1.2980   -1.7100 o         1 MOL     -0.624900
    109 O18         0.4420   -1.6970   -3.7910 o         1 MOL     -0.624900
    110 H47         1.2080   -1.2430    0.1650 hn        1 MOL      0.003723
    111 H48         2.8780   -2.9580   -1.6090 h1        1 MOL      0.085495
    112 H49         2.6600   -0.8670   -3.0860 hc        1 MOL      0.076966
    113 H50         2.0320   -0.0990   -1.6350 hc        1 MOL      0.076966
    114 N11         5.1170   -1.7740   -1.5650 n         1 MOL     -0.592531
    115 C36         6.5170   -1.2980   -1.2730 c3        1 MOL      0.383220
    116 C37         6.6640    0.1950   -0.9610 c         1 MOL      0.253518
    117 O19         7.2290    0.6190    0.0530 o         1 MOL     -0.481434
    118 C38         7.5100   -1.8510   -2.3610 c3        1 MOL     -0.393754
    119 C39         8.9710   -1.6490   -2.0230 ca        1 MOL      0.269794
    120 C40         9.5010   -2.3000   -0.9450 ca        1 MOL     -0.217643
    121 C41         9.7960   -0.9380   -2.9200 ca        1 MOL     -0.217643
    122 C42        10.8590   -2.1640   -0.5950 ca        1 MOL     -0.136932
    123 C43        11.1970   -0.9700   -2.7040 ca        1 MOL     -0.136932
    124 C44        11.7130   -1.5030   -1.5320 ca        1 MOL     -0.068623
    125 H51         4.8790   -2.1560   -2.4690 hn        1 MOL      0.320787
    126 H52         6.8360   -1.8240   -0.3700 h1        1 MOL      0.056621
    127 H53         7.2880   -1.4070   -3.3240 hc        1 MOL      0.099466
    128 H54         7.3020   -2.9110   -2.5480 hc        1 MOL      0.099466
    129 H55         8.9050   -2.7830   -0.1890 ha        1 MOL      0.135055
    130 H56         9.3180   -0.4710   -3.7660 ha        1 MOL      0.135055
    131 H57        11.2290   -2.5640    0.3350 ha        1 MOL      0.123970
    132 H58        11.8810   -0.3840   -3.2910 ha        1 MOL      0.123970
    133 H59        12.7870   -1.5070   -1.4370 ha        1 MOL      0.081854
    134 N12         5.9950    1.0970   -1.7620 n         1 MOL     -0.048146
    135 C45         5.9900    2.5660   -1.5050 c3        1 MOL     -0.026184
    136 C46         5.2500    2.9890   -0.2680 c         1 MOL      0.351277
    137 O20         5.4680    4.0690    0.2250 o         1 MOL     -0.538405
    138 C47         5.3810    3.2020   -2.8100 c3        1 MOL     -0.144724
    139 C48         5.6960    2.1250   -3.8580 c3        1 MOL      0.033683
    140 C49         5.3370    0.9070   -3.0840 c3        1 MOL     -0.078780
    141 H60         7.0020    2.9650   -1.3990 h1        1 MOL      0.096361
    142 H61         4.2990    3.2670   -2.7120 hc        1 MOL      0.081125
    143 H62         5.7270    4.1960   -3.1040 hc        1 MOL      0.081125
    144 H63         5.1390    2.1700   -4.7920 hc        1 MOL      0.003139
    145 H64         6.7760    2.1100   -4.0440 hc        1 MOL      0.003139
    146 H65         4.2490    0.9040   -3.0830 h1        1 MOL      0.065953
    147 H66         5.7120    0.0840   -3.6990 h1        1 MOL      0.065953
    148 N13         4.4960    2.1140    0.3430 n         1 MOL     -0.028106
    149 C50         3.8850    2.2370    1.7020 c3        1 MOL     -0.021426
    150 C51         4.5650    1.5150    2.8660 c         1 MOL      0.329403
    151 O21         4.5300    2.0870    3.9690 o         1 MOL     -0.544427
    152 C52         2.4880    1.6280    1.5720 c3        1 MOL      0.035252
    153 C53         1.6250    2.2490    0.4690 c3        1 MOL     -0.124263
    154 C54         0.2910    1.4860    0.4080 c         1 MOL      0.557827
    155 O22        -0.5600    1.8440   -0.4390 o         1 MOL     -0.648953
    156 O23         0.1470    0.3480    0.9250 o         1 MOL     -0.648953
    157 H67         4.3030    1.2410   -0.1200 hn        1 MOL      0.057480
    158 H68         3.7800    3.2920    1.9540 h1        1 MOL      0.114962
    159 H69         1.9160    1.8300    2.4790 hc        1 MOL      0.035868
    160 H70         2.5750    0.5430    1.4510 hc        1 MOL      0.035868
    161 H71         2.2520    2.2540   -0.4150 hc        1 MOL      0.039760
    162 H72         1.4180    3.2690    0.7710 hc        1 MOL      0.039760
    163 N14         5.3750    0.4790    2.6180 n         1 MOL      0.035731
    164 C55         6.3520   -0.1410    3.5390 c3        1 MOL     -0.170421
    165 H73         6.2650    0.3190    4.5230 h1        1 MOL      0.069111
    166 H74         6.1500   -1.2100    3.6190 h1        1 MOL      0.069111
    167 H75         7.3620    0.0100    3.1560 h1        1 MOL      0.069111
    168 H76         5.2800    0.1270    1.6750 hn        1 MOL      0.048801
    169 Ca1        -2.2320   -0.1020   -0.4560 Ca        1 MOL      1.676953
    170 O24        -4.1750   -0.7660    1.1420 oh        1 MOL     -0.919372
    171 H77        -3.5380   -0.8750    1.8500 ho        1 MOL      0.439965
    172 H78        -4.9710   -0.4550    1.5820 ho        1 MOL      0.439965
    173 O25        -1.9500   -0.2120    2.3680 oh        1 MOL     -0.919372
    174 H79        -1.0640   -0.5230    2.1760 ho        1 MOL      0.439965
    175 H80        -1.9240    0.0260    3.2910 ho        1 MOL      0.439965
@<TRIPOS>BOND
     1    1    2 1   
     2    1    4 1   
     3    1    5 1   
     4    1    6 1   
     5    2    3 2   
     6    2    7 1   
     7    7    8 1   
     8    7   15 1   
     9    8    9 1   
    10    8   11 1   
    11    8   16 1   
    12    9   10 2   
    13    9   19 1   
    14   11   12 1   
    15   11   17 1   
    16   11   18 1   
    17   12   13 1   
    18   12   14 1   
    19   19   20 1   
    20   19   24 1   
    21   20   21 1   
    22   20   23 1   
    23   20   25 1   
    24   21   22 2   
    25   21   29 1   
    26   23   26 1   
    27   23   27 1   
    28   23   28 1   
    29   29   30 1   
    30   29   37 1   
    31   30   31 1   
    32   30   33 1   
    33   30   38 1   
    34   31   32 2   
    35   31   41 1   
    36   33   34 1   
    37   33   39 1   
    38   33   40 1   
    39   34   35 1   
    40   34   36 1   
    41   41   42 1   
    42   41   45 1   
    43   42   43 1   
    44   42   46 1   
    45   42   47 1   
    46   43   44 2   
    47   43   48 1   
    48   48   49 1   
    49   48   56 1   
    50   49   50 1   
    51   49   52 1   
    52   49   57 1   
    53   50   51 2   
    54   50   62 1   
    55   52   53 1   
    56   52   58 1   
    57   52   59 1   
    58   53   54 1   
    59   53   55 2   
    60   54   60 1   
    61   54   61 1   
    62   62   63 1   
    63   62   66 1   
    64   63   64 1   
    65   63   67 1   
    66   63   68 1   
    67   64   65 2   
    68   64   69 1   
    69   69   70 1   
    70   69   76 1   
    71   70   71 1   
    72   70   73 1   
    73   70   77 1   
    74   71   72 2   
    75   71   83 1   
    76   73   74 1   
    77   73   75 1   
    78   73   78 1   
    79   74   80 1   
    80   74   81 1   
    81   74   82 1   
    82   75   79 1   
    83   83   84 1   
    84   83   91 1   
    85   84   85 1   
    86   84   87 1   
    87   84   92 1   
    88   85   86 2   
    89   85  102 1   
    90   87   88 1   
    91   87   89 1   
    92   87   93 1   
    93   88   90 1   
    94   88   94 1   
    95   88   95 1   
    96   89   96 1   
    97   89   97 1   
    98   89   98 1   
    99   90   99 1   
   100   90  100 1   
   101   90  101 1   
   102  102  103 1   
   103  102  110 1   
   104  103  104 1   
   105  103  106 1   
   106  103  111 1   
   107  104  105 2   
   108  104  114 1   
   109  106  107 1   
   110  106  112 1   
   111  106  113 1   
   112  107  108 1   
   113  107  109 1   
   114  114  115 1   
   115  114  125 1   
   116  115  116 1   
   117  115  118 1   
   118  115  126 1   
   119  116  117 2   
   120  116  134 1   
   121  118  119 1   
   122  118  127 1   
   123  118  128 1   
   124  119  120 ar  
   125  119  121 ar  
   126  120  122 ar  
   127  120  129 1   
   128  121  123 ar  
   129  121  130 1   
   130  122  124 ar  
   131  122  131 1   
   132  123  124 ar  
   133  123  132 1   
   134  124  133 1   
   135  134  135 1   
   136  134  140 1   
   137  135  136 1   
   138  135  138 1   
   139  135  141 1   
   140  136  137 2   
   141  136  148 1   
   142  138  139 1   
   143  138  142 1   
   144  138  143 1   
   145  139  140 1   
   146  139  144 1   
   147  139  145 1   
   148  140  146 1   
   149  140  147 1   
   150  148  149 1   
   151  148  157 1   
   152  149  150 1   
   153  149  152 1   
   154  149  158 1   
   155  150  151 2   
   156  150  163 1   
   157  152  153 1   
   158  152  159 1   
   159  152  160 1   
   160  153  154 1   
   161  153  161 1   
   162  153  162 1   
   163  154  155 1   
   164  154  156 1   
   165  163  164 1   
   166  163  168 1   
   167  164  165 1   
   168  164  166 1   
   169  164  167 1   
   170  170  171 1   
   171  170  172 1   
   172  173  174 1   
   173  173  175 1   
@<TRIPOS>SUBSTRUCTURE
     1 MOL         1 TEMP              0 ****  ****    0 ROOT
