@<TRIPOS>MOLECULE
MOL
  183   181     1     0     0
SMALL
resp


@<TRIPOS>ATOM
      1 C1         -0.3650    1.2220    6.2100 c3        1 MOL     -0.294062
      2 C2         -0.6340    1.5110    4.6890 c         1 MOL      0.742045
      3 O1          0.2260    1.9170    3.8720 o         1 MOL     -0.584224
      4 H1         -1.2450    0.7560    6.6530 hc        1 MOL      0.063944
      5 H2          0.4880    0.5490    6.3060 hc        1 MOL      0.063944
      6 H3         -0.1510    2.1580    6.7260 hc        1 MOL      0.063944
      7 N1         -1.9110    1.2630    4.4020 n         1 MOL     -0.676809
      8 C3         -2.4380    1.3030    3.0870 c3        1 MOL      0.469320
      9 C4         -2.8420    2.7230    2.7560 c         1 MOL      0.366051
     10 O2         -3.5860    3.4070    3.4950 o         1 MOL     -0.570028
     11 C5         -3.6430    0.3170    2.9840 c3        1 MOL     -0.434628
     12 C6         -4.3120    0.3510    1.6480 c         1 MOL      0.919802
     13 O3         -5.5160    0.1130    1.7270 o         1 MOL     -0.647705
     14 O4         -3.7160    0.7220    0.5990 o         1 MOL     -0.647705
     15 H4         -2.4900    0.9190    5.1430 hn        1 MOL      0.335553
     16 H5         -1.7210    0.9100    2.3730 h1        1 MOL      0.004190
     17 H6         -4.3470    0.5500    3.7810 hc        1 MOL      0.061725
     18 H7         -3.2290   -0.6850    3.0450 hc        1 MOL      0.061725
     19 N2         -2.3810    3.2720    1.5990 n         1 MOL     -0.205461
     20 C7         -2.5020    4.6550    1.2030 c3        1 MOL     -0.067512
     21 C8         -3.5490    4.8440    0.1030 c         1 MOL      0.495801
     22 O5         -3.8780    5.9660   -0.2960 o         1 MOL     -0.570676
     23 C9         -1.1550    5.2390    0.7200 c3        1 MOL      0.393032
     24 C10         0.0350    4.7290    1.6670 c3        1 MOL     -0.005782
     25 C11        -1.1430    6.7940    0.6120 c3        1 MOL     -0.253308
     26 C12         1.4450    5.2190    1.2710 c3        1 MOL     -0.117933
     27 H8         -1.8470    2.6460    1.0100 hn        1 MOL      0.024051
     28 H9         -2.8080    5.3090    2.0250 h1        1 MOL      0.066303
     29 H10        -0.9860    4.8540   -0.2890 hc        1 MOL     -0.014014
     30 H11         0.0340    3.6380    1.6670 hc        1 MOL     -0.009445
     31 H12        -0.2670    5.0490    2.6720 hc        1 MOL     -0.009445
     32 H13        -0.6930    7.3120    1.4570 hc        1 MOL      0.025838
     33 H14        -0.4890    6.9400   -0.2530 hc        1 MOL      0.025838
     34 H15        -2.1640    7.1670    0.5780 hc        1 MOL      0.025838
     35 H16         2.1610    4.7070    1.9130 hc        1 MOL      0.017498
     36 H17         1.6670    5.0180    0.2230 hc        1 MOL      0.017498
     37 H18         1.6450    6.2610    1.5330 hc        1 MOL      0.017498
     38 N3         -4.1130    3.7210   -0.4140 n         1 MOL     -0.450856
     39 C13        -5.2660    3.9080   -1.4620 c3        1 MOL      0.140006
     40 C14        -6.5820    3.1050   -1.2320 c         1 MOL      0.390165
     41 O6         -7.5420    3.2750   -1.9330 o         1 MOL     -0.529283
     42 C15        -4.6830    3.6190   -2.8890 c3        1 MOL     -0.070120
     43 C16        -3.7730    2.4360   -3.0950 c         1 MOL      0.701149
     44 O7         -2.9050    2.4420   -3.9630 o         1 MOL     -0.684872
     45 O8         -3.7770    1.4460   -2.3180 o         1 MOL     -0.684872
     46 H19        -3.7330    2.8230   -0.1650 hn        1 MOL      0.317474
     47 H20        -5.6440    4.9200   -1.5790 h1        1 MOL      0.063851
     48 H21        -4.1730    4.4670   -3.3480 hc        1 MOL      0.001718
     49 H22        -5.6130    3.5120   -3.4500 hc        1 MOL      0.001718
     50 N4         -6.6970    2.1740   -0.2680 n         1 MOL     -0.256583
     51 C17        -8.0350    1.5480    0.0930 c3        1 MOL     -0.054415
     52 C18        -8.2950    0.1870   -0.5040 c         1 MOL      0.467640
     53 O9         -9.4490   -0.2360   -0.6120 o         1 MOL     -0.621990
     54 H23        -5.8710    1.9670    0.2820 hn        1 MOL      0.136151
     55 H24        -8.8780    2.2190   -0.0060 h1        1 MOL      0.080790
     56 H25        -8.0130    1.3670    1.1760 h1        1 MOL      0.080790
     57 N5         -7.2920   -0.5850   -0.8490 n         1 MOL     -0.068769
     58 C19        -7.3980   -1.9370   -1.3750 c3        1 MOL     -0.026939
     59 C20        -7.4580   -2.9210   -0.1800 c         1 MOL      0.494382
     60 O10        -7.8650   -4.0480   -0.2890 o         1 MOL     -0.550937
     61 C21        -6.3610   -2.1970   -2.4620 c3        1 MOL     -0.180327
     62 C22        -4.9600   -1.7520   -2.1740 c         1 MOL      0.721706
     63 O11        -4.1290   -1.5240   -3.1040 o         1 MOL     -0.741456
     64 O12        -4.6990   -1.6140   -0.9690 o         1 MOL     -0.741456
     65 H26        -6.4080   -0.2910   -0.4620 hn        1 MOL      0.035971
     66 H27        -8.3870   -2.0240   -1.8310 h1        1 MOL      0.089816
     67 H28        -6.7210   -1.7860   -3.4080 hc        1 MOL      0.051887
     68 H29        -6.4480   -3.2790   -2.6010 hc        1 MOL      0.051887
     69 N6         -6.9020   -2.5140    1.0050 n         1 MOL     -0.310658
     70 C23        -6.5450   -3.4140    2.0720 c3        1 MOL      0.015210
     71 C24        -5.2660   -4.1650    1.8950 c         1 MOL      0.504797
     72 O13        -5.0600   -5.1730    2.5850 o         1 MOL     -0.629229
     73 H30        -6.4240   -1.6250    0.9390 hn        1 MOL      0.169446
     74 H31        -7.3410   -4.1260    2.3110 h1        1 MOL      0.047033
     75 H32        -6.3870   -2.8780    3.0040 h1        1 MOL      0.047033
     76 N7         -4.3410   -3.7640    1.0950 n         1 MOL     -0.155288
     77 C25        -2.9900   -4.2920    1.0870 c3        1 MOL     -0.010552
     78 C26        -1.9360   -3.2660    1.1810 c         1 MOL      0.673795
     79 O14        -2.1230   -2.1560    0.7230 o         1 MOL     -0.760163
     80 C27        -2.7380   -5.3320   -0.0540 c3        1 MOL     -0.168298
     81 C28        -2.9570   -4.7430   -1.4900 c3        1 MOL     -0.217778
     82 C29        -1.7760   -3.9360   -2.0820 c         1 MOL      0.549784
     83 N8         -0.7030   -4.6020   -2.5650 n         1 MOL     -0.689249
     84 O15        -1.7560   -2.7300   -2.1860 o         1 MOL     -0.436539
     85 H33        -4.4510   -2.8390    0.7000 hn        1 MOL      0.223961
     86 H34        -2.7790   -4.7720    2.0450 h1        1 MOL      0.040221
     87 H35        -3.4690   -6.1120    0.1560 hc        1 MOL      0.070272
     88 H36        -1.7970   -5.8510    0.1030 hc        1 MOL      0.070272
     89 H37        -3.9630   -4.3490   -1.6580 hc        1 MOL      0.091899
     90 H38        -2.9310   -5.5690   -2.1920 hc        1 MOL      0.091899
     91 H39        -0.6740   -5.6190   -2.5620 hn        1 MOL      0.328374
     92 H40         0.1120   -4.0700   -2.8140 hn        1 MOL      0.328374
     93 N9         -0.6570   -3.6500    1.5700 n         1 MOL     -0.420673
     94 C30         0.5540   -2.7950    1.6450 c3        1 MOL     -0.012081
     95 C31         1.6420   -3.2320    0.6870 c         1 MOL      0.394270
     96 O16         2.1330   -4.3480    0.9030 o         1 MOL     -0.553051
     97 C32         0.9850   -2.8570    3.1460 c3        1 MOL      0.400555
     98 C33         1.9190   -1.6690    3.3760 c3        1 MOL     -0.321175
     99 C34        -0.1510   -2.7920    4.1580 c3        1 MOL     -0.321175
    100 H41        -0.6100   -4.6290    1.8040 hn        1 MOL      0.245814
    101 H42         0.3310   -1.7840    1.3120 h1        1 MOL      0.132745
    102 H43         1.6080   -3.7150    3.4050 hc        1 MOL     -0.054283
    103 H44         2.3890   -1.8440    4.3360 hc        1 MOL      0.055069
    104 H45         2.6510   -1.7620    2.5740 hc        1 MOL      0.055069
    105 H46         1.4560   -0.6870    3.2540 hc        1 MOL      0.055069
    106 H47        -0.7570   -3.6880    4.1090 hc        1 MOL      0.055069
    107 H48         0.3160   -2.7940    5.1430 hc        1 MOL      0.055069
    108 H49        -0.7220   -1.8820    3.9660 hc        1 MOL      0.055069
    109 N10         2.0410   -2.3630   -0.2710 n         1 MOL     -0.196674
    110 C35         3.2680   -2.5630   -1.0060 c3        1 MOL      0.305303
    111 C36         4.4880   -2.0630   -0.2300 c         1 MOL      0.304274
    112 O17         4.4030   -1.4330    0.8060 o         1 MOL     -0.281621
    113 C37         3.0440   -1.8320   -2.4450 c3        1 MOL     -0.640848
    114 C38         1.8150   -2.2510   -3.2340 c         1 MOL      0.948828
    115 N11         0.6720   -1.6780   -2.9720 n         1 MOL     -0.991959
    116 O18         1.7690   -3.1610   -4.0450 o         1 MOL     -0.669704
    117 H50         1.8460   -1.3840   -0.0730 hn        1 MOL      0.096218
    118 H51         3.4160   -3.6310   -1.1810 h1        1 MOL      0.023438
    119 H52         3.8850   -1.9300   -3.1380 hc        1 MOL      0.149401
    120 H53         2.9560   -0.7530   -2.3020 hc        1 MOL      0.149401
    121 H54         0.6190   -1.0160   -2.2160 hn        1 MOL      0.396494
    122 H55        -0.1130   -1.8860   -3.5660 hn        1 MOL      0.396494
    123 N12         5.7390   -2.2490   -0.7530 n         1 MOL     -0.480847
    124 C39         6.9850   -1.7200   -0.1670 c3        1 MOL      0.053153
    125 C40         7.0980   -0.2140   -0.3690 c         1 MOL      0.606295
    126 O19         7.2610    0.4700    0.6020 o         1 MOL     -0.526413
    127 C41         8.2160   -2.4440   -0.8120 c3        1 MOL     -0.221677
    128 C42         9.5200   -1.8420   -0.2130 ca        1 MOL     -0.004005
    129 C43         9.9770   -2.1870    1.0800 ca        1 MOL     -0.087953
    130 C44        10.3610   -1.0930   -1.0310 ca        1 MOL     -0.087953
    131 C45        11.1850   -1.6630    1.6140 ca        1 MOL     -0.346366
    132 C46        11.6050   -0.5920   -0.5480 ca        1 MOL     -0.346366
    133 C47        11.9970   -0.8270    0.8140 ca        1 MOL      0.434568
    134 O20        13.1430   -0.2080    1.2390 oh        1 MOL     -0.535861
    135 H56         5.7570   -2.7730   -1.6200 hn        1 MOL      0.302627
    136 H57         7.0930   -1.9040    0.9030 h1        1 MOL      0.115626
    137 H58         8.2870   -2.4520   -1.8920 hc        1 MOL      0.084292
    138 H59         8.1250   -3.5250   -0.6650 hc        1 MOL      0.084292
    139 H60         9.2860   -2.6570    1.7630 ha        1 MOL      0.121484
    140 H61        10.0810   -0.8630   -2.0550 ha        1 MOL      0.121484
    141 H62        11.3680   -1.7360    2.6760 ha        1 MOL      0.166193
    142 H63        12.2470    0.0140   -1.1740 ha        1 MOL      0.166193
    143 H64        13.4680    0.4510    0.6190 ho        1 MOL      0.373442
    144 N13         6.5250    0.3210   -1.4450 n         1 MOL     -0.434733
    145 C48         6.3230    1.7850   -1.4100 c3        1 MOL     -0.123230
    146 C49         5.3370    2.4420   -0.5150 c         1 MOL      0.362561
    147 O21         5.3840    3.6430   -0.2370 o         1 MOL     -0.557794
    148 C50         6.0040    2.2620   -2.8180 c3        1 MOL     -0.030027
    149 C51         4.7970    1.7020   -3.5680 c3        1 MOL     -0.007518
    150 C52         4.6290    2.2910   -4.9700 c         1 MOL      0.662520
    151 O22         3.9880    3.3530   -5.0390 o         1 MOL     -0.716503
    152 O23         5.3170    1.8300   -5.8620 o         1 MOL     -0.716503
    153 H65         6.2450   -0.2800   -2.2100 hn        1 MOL      0.286665
    154 H66         7.2700    2.3000   -1.2450 h1        1 MOL      0.112516
    155 H67         6.9290    2.0690   -3.3560 hc        1 MOL      0.043868
    156 H68         5.8960    3.3440   -2.8430 hc        1 MOL      0.043868
    157 H69         3.8900    1.9080   -3.0030 hc        1 MOL     -0.055548
    158 H70         4.9170    0.6180   -3.6150 hc        1 MOL     -0.055548
    159 N14         4.4210    1.7840    0.1430 n         1 MOL      0.031958
    160 C53         3.4770    2.2030    1.1720 c3        1 MOL     -0.009383
    161 C54         4.1530    1.9620    2.4970 c         1 MOL      0.383400
    162 O24         3.9290    2.7390    3.4640 o         1 MOL     -0.552565
    163 C55         2.0720    1.5270    1.0130 c3        1 MOL      0.392158
    164 C56         1.4200    1.8990   -0.3170 c3        1 MOL      0.134104
    165 C57         0.0940    1.1280   -0.5030 c         1 MOL      0.386784
    166 O25        -0.9920    1.7850   -0.4870 o         1 MOL     -0.562322
    167 O26         0.1100   -0.1010   -0.7240 o         1 MOL     -0.562322
    168 H71         4.4420    0.7760   -0.0020 hn        1 MOL      0.096970
    169 H72         3.3420    3.2780    1.0470 h1        1 MOL      0.061435
    170 H73         1.4660    1.7720    1.8830 hc        1 MOL     -0.102670
    171 H74         2.2660    0.4620    1.1060 hc        1 MOL     -0.102670
    172 H75         2.1710    1.6670   -1.0660 hc        1 MOL     -0.024211
    173 H76         1.2360    2.9700   -0.3680 hc        1 MOL     -0.024211
    174 N15         4.8590    0.8470    2.6710 n         1 MOL     -0.032488
    175 C58         5.6070    0.4750    3.8320 c3        1 MOL     -0.209642
    176 H77         6.6570    0.3590    3.5650 h1        1 MOL      0.076962
    177 H78         5.5090    1.2510    4.5910 h1        1 MOL      0.076962
    178 H79         5.2250   -0.4680    4.2240 h1        1 MOL      0.076962
    179 H80         4.9830    0.2670    1.8480 hn        1 MOL      0.019188
    180 Ca1        -2.4310   -0.3640   -1.2680 Ca        1 MOL      1.655704
    181 O27        -1.3790    0.4040   -3.6550 oh        1 MOL     -0.728334
    182 H81        -1.8290    1.1440   -4.0710 ho        1 MOL      0.354742
    183 H82        -1.4500   -0.3090   -4.2840 ho        1 MOL      0.354742
@<TRIPOS>BOND
     1    1    2 1   
     2    1    4 1   
     3    1    5 1   
     4    1    6 1   
     5    2    3 2   
     6    2    7 1   
     7    7    8 1   
     8    7   15 1   
     9    8    9 1   
    10    8   11 1   
    11    8   16 1   
    12    9   10 2   
    13    9   19 1   
    14   11   12 1   
    15   11   17 1   
    16   11   18 1   
    17   12   13 1   
    18   12   14 1   
    19   19   20 1   
    20   19   27 1   
    21   20   21 1   
    22   20   23 1   
    23   20   28 1   
    24   21   22 2   
    25   21   38 1   
    26   23   24 1   
    27   23   25 1   
    28   23   29 1   
    29   24   26 1   
    30   24   30 1   
    31   24   31 1   
    32   25   32 1   
    33   25   33 1   
    34   25   34 1   
    35   26   35 1   
    36   26   36 1   
    37   26   37 1   
    38   38   39 1   
    39   38   46 1   
    40   39   40 1   
    41   39   42 1   
    42   39   47 1   
    43   40   41 2   
    44   40   50 1   
    45   42   43 1   
    46   42   48 1   
    47   42   49 1   
    48   43   44 1   
    49   43   45 1   
    50   50   51 1   
    51   50   54 1   
    52   51   52 1   
    53   51   55 1   
    54   51   56 1   
    55   52   53 2   
    56   52   57 1   
    57   57   58 1   
    58   57   65 1   
    59   58   59 1   
    60   58   61 1   
    61   58   66 1   
    62   59   60 2   
    63   59   69 1   
    64   61   62 1   
    65   61   67 1   
    66   61   68 1   
    67   62   63 1   
    68   62   64 1   
    69   69   70 1   
    70   69   73 1   
    71   70   71 1   
    72   70   74 1   
    73   70   75 1   
    74   71   72 2   
    75   71   76 1   
    76   76   77 1   
    77   76   85 1   
    78   77   78 1   
    79   77   80 1   
    80   77   86 1   
    81   78   79 2   
    82   78   93 1   
    83   80   81 1   
    84   80   87 1   
    85   80   88 1   
    86   81   82 1   
    87   81   89 1   
    88   81   90 1   
    89   82   83 1   
    90   82   84 2   
    91   83   91 1   
    92   83   92 1   
    93   93   94 1   
    94   93  100 1   
    95   94   95 1   
    96   94   97 1   
    97   94  101 1   
    98   95   96 2   
    99   95  109 1   
   100   97   98 1   
   101   97   99 1   
   102   97  102 1   
   103   98  103 1   
   104   98  104 1   
   105   98  105 1   
   106   99  106 1   
   107   99  107 1   
   108   99  108 1   
   109  109  110 1   
   110  109  117 1   
   111  110  111 1   
   112  110  113 1   
   113  110  118 1   
   114  111  112 2   
   115  111  123 1   
   116  113  114 1   
   117  113  119 1   
   118  113  120 1   
   119  114  115 1   
   120  114  116 2   
   121  115  121 1   
   122  115  122 1   
   123  123  124 1   
   124  123  135 1   
   125  124  125 1   
   126  124  127 1   
   127  124  136 1   
   128  125  126 2   
   129  125  144 1   
   130  127  128 1   
   131  127  137 1   
   132  127  138 1   
   133  128  129 ar  
   134  128  130 ar  
   135  129  131 ar  
   136  129  139 1   
   137  130  132 ar  
   138  130  140 1   
   139  131  133 ar  
   140  131  141 1   
   141  132  133 ar  
   142  132  142 1   
   143  133  134 1   
   144  134  143 1   
   145  144  145 1   
   146  144  153 1   
   147  145  146 1   
   148  145  148 1   
   149  145  154 1   
   150  146  147 2   
   151  146  159 1   
   152  148  149 1   
   153  148  155 1   
   154  148  156 1   
   155  149  150 1   
   156  149  157 1   
   157  149  158 1   
   158  150  151 1   
   159  150  152 1   
   160  159  160 1   
   161  159  168 1   
   162  160  161 1   
   163  160  163 1   
   164  160  169 1   
   165  161  162 2   
   166  161  174 1   
   167  163  164 1   
   168  163  170 1   
   169  163  171 1   
   170  164  165 1   
   171  164  172 1   
   172  164  173 1   
   173  165  166 1   
   174  165  167 1   
   175  174  175 1   
   176  174  179 1   
   177  175  176 1   
   178  175  177 1   
   179  175  178 1   
   180  181  182 1   
   181  181  183 1   
@<TRIPOS>SUBSTRUCTURE
     1 MOL         1 TEMP              0 ****  ****    0 ROOT
