@<TRIPOS>MOLECULE
MOL
  175   173     1     0     0
SMALL
resp


@<TRIPOS>ATOM
      1 C1          0.5080    3.7700    5.6100 c3        1 MOL     -0.367806
      2 C2          0.0290    3.7010    4.1610 c         1 MOL      0.742572
      3 O1          0.8490    3.7700    3.2670 o         1 MOL     -0.542409
      4 H1          0.0450    2.9660    6.1840 hc        1 MOL      0.087226
      5 H2          1.5920    3.6590    5.6400 hc        1 MOL      0.087226
      6 H3          0.2280    4.7310    6.0400 hc        1 MOL      0.087226
      7 N1         -1.3000    3.5180    3.9260 n         1 MOL     -0.657051
      8 C3         -1.8520    3.3290    2.6060 c3        1 MOL      0.031158
      9 C4         -2.0410    4.6350    1.9120 c         1 MOL      0.648220
     10 O2         -2.2790    5.6820    2.5350 o         1 MOL     -0.583906
     11 C5         -3.2580    2.8260    2.8270 c3        1 MOL     -0.445473
     12 C6         -3.9570    2.3550    1.5730 c         1 MOL      0.806328
     13 O3         -5.1630    2.1960    1.7230 o         1 MOL     -0.675225
     14 O4         -3.3790    2.0030    0.5210 o         1 MOL     -0.675225
     15 H4         -1.9430    3.2630    4.6690 hn        1 MOL      0.337597
     16 H5         -1.2110    2.6940    2.0060 h1        1 MOL      0.172829
     17 H6         -3.8910    3.6230    3.2190 hc        1 MOL      0.112347
     18 H7         -3.2310    1.9750    3.5160 hc        1 MOL      0.112347
     19 N2         -1.9930    4.5590    0.5960 n         1 MOL     -0.572222
     20 C7         -2.4400    5.6330   -0.3430 c3        1 MOL      0.304705
     21 C8         -3.2620    5.1650   -1.5550 c         1 MOL      0.425749
     22 O5         -3.3520    5.8990   -2.5620 o         1 MOL     -0.551715
     23 C9         -1.1320    6.3090   -0.8740 c3        1 MOL     -0.156968
     24 H8         -1.7070    3.6660    0.2130 hn        1 MOL      0.330962
     25 H9         -2.9700    6.3740    0.2420 h1        1 MOL      0.007226
     26 H10        -0.5520    6.6760   -0.0250 hc        1 MOL      0.032564
     27 H11        -0.5040    5.5290   -1.2990 hc        1 MOL      0.032564
     28 H12        -1.4160    7.1730   -1.4820 hc        1 MOL      0.032564
     29 N3         -3.8830    3.9510   -1.5550 n         1 MOL     -0.448150
     30 C10        -4.6820    3.4360   -2.6770 c3        1 MOL      0.269753
     31 C11        -5.9500    2.7040   -2.3060 c         1 MOL      0.269735
     32 O6         -6.7750    2.6430   -3.2340 o         1 MOL     -0.541913
     33 C12        -3.8230    2.5560   -3.6640 c3        1 MOL     -0.235490
     34 C13        -3.1990    1.3230   -2.9390 c         1 MOL      0.658697
     35 O7         -1.9700    1.1730   -3.0750 o         1 MOL     -0.655171
     36 O8         -3.8760    0.5470   -2.1460 o         1 MOL     -0.655171
     37 H13        -3.7040    3.3720   -0.7490 hn        1 MOL      0.203570
     38 H14        -5.0260    4.2850   -3.2630 h1        1 MOL      0.039523
     39 H15        -2.9850    3.1930   -3.9730 hc        1 MOL      0.065338
     40 H16        -4.4710    2.2790   -4.4880 hc        1 MOL      0.065338
     41 N4         -6.1730    2.2010   -1.1170 n         1 MOL     -0.037888
     42 C14        -7.3240    1.4120   -0.7050 c3        1 MOL     -0.285869
     43 C15        -7.3590   -0.0710   -1.1540 c         1 MOL      0.527518
     44 O9         -8.4380   -0.5820   -1.2920 o         1 MOL     -0.618819
     45 H17        -5.5600    2.3800   -0.3420 hn        1 MOL      0.109314
     46 H18        -8.2260    1.9570   -0.9870 h1        1 MOL      0.120732
     47 H19        -7.2030    1.5150    0.3740 h1        1 MOL      0.120732
     48 N5         -6.2900   -0.7240   -1.5350 n         1 MOL     -0.006884
     49 C16        -6.2830   -2.1640   -1.9670 c3        1 MOL     -0.330191
     50 C17        -6.0940   -3.2570   -0.8620 c         1 MOL      0.545327
     51 O10        -5.9600   -4.4280   -1.1560 o         1 MOL     -0.498921
     52 C18        -5.1070   -2.2310   -2.9660 c3        1 MOL      0.100469
     53 C19        -3.7080   -2.3880   -2.4820 c         1 MOL      0.359139
     54 N6         -2.7640   -2.4670   -3.3960 n         1 MOL     -0.650162
     55 O11        -3.3890   -2.3180   -1.3070 o         1 MOL     -0.197873
     56 H20        -5.4730   -0.1380   -1.5720 hn        1 MOL      0.076399
     57 H21        -7.2250   -2.3580   -2.4670 h1        1 MOL      0.164589
     58 H22        -5.1530   -1.4540   -3.7340 hc        1 MOL      0.017151
     59 H23        -5.2450   -3.0440   -3.6860 hc        1 MOL      0.017151
     60 H24        -3.0720   -2.2890   -4.3360 hn        1 MOL      0.324986
     61 H25        -1.8220   -2.1870   -3.1640 hn        1 MOL      0.324986
     62 N7         -6.2320   -2.8140    0.3770 n         1 MOL     -0.318163
     63 C20        -6.2030   -3.6300    1.5970 c3        1 MOL      0.001955
     64 C21        -4.8720   -4.3080    1.9030 c         1 MOL      0.440803
     65 O12        -4.7980   -5.2360    2.7080 o         1 MOL     -0.583290
     66 H26        -6.5260   -1.8610    0.5490 hn        1 MOL      0.238827
     67 H27        -6.9960   -4.3600    1.7690 h1        1 MOL      0.051501
     68 H28        -6.2700   -2.9510    2.4510 h1        1 MOL      0.051501
     69 N8         -3.8190   -3.9130    1.1930 n         1 MOL     -0.041051
     70 C22        -2.5120   -4.5530    1.3560 c3        1 MOL      0.018230
     71 C23        -1.4300   -3.4920    1.5970 c         1 MOL      0.303445
     72 O13        -1.5860   -2.3560    1.0690 o         1 MOL     -0.459675
     73 C24        -2.2370   -5.4580    0.2020 c3        1 MOL      0.537359
     74 C25        -3.2020   -6.6270    0.1630 c3        1 MOL     -0.303352
     75 O14        -2.3180   -4.8830   -1.0770 oh        1 MOL     -0.596801
     76 H29        -3.9470   -3.1590    0.5400 hn        1 MOL     -0.151619
     77 H30        -2.6040   -5.1600    2.2550 h1        1 MOL      0.038258
     78 H31        -1.2840   -5.9510    0.4260 h1        1 MOL     -0.087461
     79 H32        -1.8780   -4.0350   -1.0660 ho        1 MOL      0.325828
     80 H33        -4.1680   -6.4170   -0.2990 hc        1 MOL      0.065474
     81 H34        -2.7450   -7.4090   -0.4440 hc        1 MOL      0.065474
     82 H35        -3.2730   -7.0750    1.1550 hc        1 MOL      0.065474
     83 N9         -0.2850   -3.8270    2.1920 n         1 MOL     -0.381884
     84 C26         0.8350   -2.8810    2.1610 c3        1 MOL     -0.036368
     85 C27         1.6550   -3.1040    0.9570 c         1 MOL      0.657559
     86 O15         2.0540   -4.2190    0.6640 o         1 MOL     -0.631404
     87 C28         1.7290   -2.7940    3.4820 c3        1 MOL      0.079526
     88 C29         0.8560   -2.2490    4.6230 c3        1 MOL      0.372200
     89 C30         2.9030   -1.9020    3.2120 c3        1 MOL     -0.299922
     90 C31         1.4280   -2.2010    6.0650 c3        1 MOL     -0.228440
     91 H36        -0.2690   -4.7530    2.5980 hn        1 MOL      0.283741
     92 H37         0.5590   -1.8200    2.1810 h1        1 MOL      0.076053
     93 H38         2.1090   -3.7880    3.7320 hc        1 MOL     -0.006197
     94 H39         0.0760   -3.0040    4.7430 hc        1 MOL     -0.109621
     95 H40         0.3370   -1.3210    4.3640 hc        1 MOL     -0.109621
     96 H41         3.4980   -1.7610    4.1200 hc        1 MOL      0.052706
     97 H42         3.4830   -2.1510    2.3160 hc        1 MOL      0.052706
     98 H43         2.5350   -0.9110    2.9440 hc        1 MOL      0.052706
     99 H44         2.2900   -1.5400    6.0480 hc        1 MOL      0.039581
    100 H45         0.6920   -1.8190    6.7720 hc        1 MOL      0.039581
    101 H46         1.7740   -3.2000    6.3310 hc        1 MOL      0.039581
    102 N10         1.8750   -2.0770    0.1510 n         1 MOL     -0.131873
    103 C32         2.6490   -1.9420   -1.1210 c3        1 MOL     -0.017947
    104 C33         4.1220   -1.5280   -0.8400 c         1 MOL      0.427132
    105 O16         4.3910   -0.8850    0.1370 o         1 MOL     -0.225109
    106 C34         1.9570   -0.9200   -1.9620 c3        1 MOL     -0.327019
    107 C35         0.6290   -1.4820   -2.5060 c         1 MOL      0.736087
    108 O17         0.4700   -1.7110   -3.6970 o         1 MOL     -0.673720
    109 O18        -0.3770   -1.5300   -1.7790 o         1 MOL     -0.673720
    110 H47         1.3660   -1.2390    0.4100 hn        1 MOL     -0.087345
    111 H48         2.6390   -2.9440   -1.5570 h1        1 MOL      0.080393
    112 H49         2.5740   -0.5670   -2.7860 hc        1 MOL      0.128986
    113 H50         1.6780   -0.0570   -1.3550 hc        1 MOL      0.128986
    114 N11         5.0640   -1.8770   -1.7120 n         1 MOL     -0.630481
    115 C36         6.4950   -1.4880   -1.5640 c3        1 MOL      0.341997
    116 C37         6.5750    0.0610   -1.2810 c         1 MOL      0.286630
    117 O19         7.0430    0.4020   -0.2120 o         1 MOL     -0.489871
    118 C38         7.3270   -2.0680   -2.7060 c3        1 MOL     -0.160294
    119 C39         8.8030   -1.8510   -2.4110 ca        1 MOL      0.043986
    120 C40         9.5190   -0.7350   -2.8530 ca        1 MOL     -0.164223
    121 C41         9.5180   -2.6950   -1.4690 ca        1 MOL     -0.164223
    122 C42        10.8430   -0.5420   -2.4450 ca        1 MOL     -0.098958
    123 C43        10.7390   -2.4330   -0.9540 ca        1 MOL     -0.098958
    124 C44        11.4490   -1.3720   -1.4470 ca        1 MOL     -0.095046
    125 H51         4.7290   -2.1910   -2.6220 hn        1 MOL      0.325435
    126 H52         6.8280   -1.9650   -0.6530 h1        1 MOL      0.068347
    127 H53         7.1670   -1.6640   -3.6990 hc        1 MOL      0.062432
    128 H54         7.1740   -3.1460   -2.6680 hc        1 MOL      0.062432
    129 H55         9.0600   -0.0860   -3.5770 ha        1 MOL      0.114563
    130 H56         8.9960   -3.5520   -1.0650 ha        1 MOL      0.114563
    131 H57        11.3860    0.2710   -2.9050 ha        1 MOL      0.106639
    132 H58        11.0950   -3.1590   -0.2350 ha        1 MOL      0.106639
    133 H59        12.4830   -1.1750   -1.1880 ha        1 MOL      0.092120
    134 N12         5.9850    1.0550   -1.9550 n         1 MOL     -0.005801
    135 C45         6.0040    2.4670   -1.5940 c3        1 MOL      0.038967
    136 C46         5.4170    2.8000   -0.1640 c         1 MOL      0.210032
    137 O20         5.7880    3.8130    0.4550 o         1 MOL     -0.530313
    138 C47         5.3330    3.2900   -2.6560 c3        1 MOL     -0.037882
    139 C48         4.6140    2.2620   -3.5130 c3        1 MOL     -0.034968
    140 C49         5.3650    0.9490   -3.2660 c3        1 MOL      0.046289
    141 H60         7.0500    2.7750   -1.6840 h1        1 MOL      0.056474
    142 H61         4.5900    3.9210   -2.1760 hc        1 MOL      0.034841
    143 H62         6.0150    3.9100   -3.2430 hc        1 MOL      0.034841
    144 H63         3.6240    2.1560   -3.0590 hc        1 MOL      0.035429
    145 H64         4.5430    2.6170   -4.5380 hc        1 MOL      0.035429
    146 H65         4.6550    0.1330   -3.4260 h1        1 MOL     -0.017498
    147 H66         6.1410    0.9290   -4.0270 h1        1 MOL     -0.017498
    148 N13         4.6130    1.9780    0.4650 n         1 MOL      0.171260
    149 C50         3.9480    2.1550    1.7600 c3        1 MOL     -0.092776
    150 C51         4.7770    1.4230    2.8880 c         1 MOL      0.356570
    151 O21         4.9330    1.9180    4.0080 o         1 MOL     -0.538184
    152 C52         2.5690    1.5320    1.5780 c3        1 MOL     -0.008300
    153 C53         1.7150    2.2980    0.4990 c3        1 MOL     -0.065156
    154 C54         0.4540    1.5040    0.1990 c         1 MOL      0.326880
    155 O22        -0.3890    2.0240   -0.5640 o         1 MOL     -0.528939
    156 O23         0.2540    0.4080    0.6920 o         1 MOL     -0.528939
    157 H67         4.3960    1.1310   -0.0460 hn        1 MOL      0.007420
    158 H68         3.8560    3.1930    2.0820 h1        1 MOL      0.117783
    159 H69         1.9840    1.5470    2.4920 hc        1 MOL      0.030649
    160 H70         2.6120    0.4860    1.2620 hc        1 MOL      0.030649
    161 H71         2.2590    2.3810   -0.4340 hc        1 MOL      0.044521
    162 H72         1.4930    3.2820    0.9080 hc        1 MOL      0.044521
    163 N14         5.5060    0.3760    2.4540 n         1 MOL      0.056083
    164 C55         6.4880   -0.3640    3.2490 c3        1 MOL     -0.147241
    165 H73         5.9720   -1.0690    3.9000 h1        1 MOL      0.056744
    166 H74         7.1580   -0.9090    2.5840 h1        1 MOL      0.056744
    167 H75         7.0660    0.3340    3.8550 h1        1 MOL      0.056744
    168 H76         5.4700    0.1270    1.4700 hn        1 MOL     -0.044737
    169 Ca1        -2.1120   -0.1000   -0.4340 Ca        1 MOL      1.563451
    170 O24        -1.7320    0.2210    2.5120 oh        1 MOL     -0.803788
    171 H77        -1.6270    0.0210    3.4390 ho        1 MOL      0.404589
    172 H78        -0.8430    0.3890    2.2000 ho        1 MOL      0.404589
    173 O25        -4.1830   -0.8260    1.2160 oh        1 MOL     -0.803788
    174 H79        -3.5930   -0.7450    1.9610 ho        1 MOL      0.404589
    175 H80        -5.0550   -0.8760    1.6000 ho        1 MOL      0.404589
@<TRIPOS>BOND
     1    1    2 1   
     2    1    4 1   
     3    1    5 1   
     4    1    6 1   
     5    2    3 2   
     6    2    7 1   
     7    7    8 1   
     8    7   15 1   
     9    8    9 1   
    10    8   11 1   
    11    8   16 1   
    12    9   10 2   
    13    9   19 1   
    14   11   12 1   
    15   11   17 1   
    16   11   18 1   
    17   12   13 1   
    18   12   14 1   
    19   19   20 1   
    20   19   24 1   
    21   20   21 1   
    22   20   23 1   
    23   20   25 1   
    24   21   22 2   
    25   21   29 1   
    26   23   26 1   
    27   23   27 1   
    28   23   28 1   
    29   29   30 1   
    30   29   37 1   
    31   30   31 1   
    32   30   33 1   
    33   30   38 1   
    34   31   32 2   
    35   31   41 1   
    36   33   34 1   
    37   33   39 1   
    38   33   40 1   
    39   34   35 1   
    40   34   36 1   
    41   41   42 1   
    42   41   45 1   
    43   42   43 1   
    44   42   46 1   
    45   42   47 1   
    46   43   44 2   
    47   43   48 1   
    48   48   49 1   
    49   48   56 1   
    50   49   50 1   
    51   49   52 1   
    52   49   57 1   
    53   50   51 2   
    54   50   62 1   
    55   52   53 1   
    56   52   58 1   
    57   52   59 1   
    58   53   54 1   
    59   53   55 2   
    60   54   60 1   
    61   54   61 1   
    62   62   63 1   
    63   62   66 1   
    64   63   64 1   
    65   63   67 1   
    66   63   68 1   
    67   64   65 2   
    68   64   69 1   
    69   69   70 1   
    70   69   76 1   
    71   70   71 1   
    72   70   73 1   
    73   70   77 1   
    74   71   72 2   
    75   71   83 1   
    76   73   74 1   
    77   73   75 1   
    78   73   78 1   
    79   74   80 1   
    80   74   81 1   
    81   74   82 1   
    82   75   79 1   
    83   83   84 1   
    84   83   91 1   
    85   84   85 1   
    86   84   87 1   
    87   84   92 1   
    88   85   86 2   
    89   85  102 1   
    90   87   88 1   
    91   87   89 1   
    92   87   93 1   
    93   88   90 1   
    94   88   94 1   
    95   88   95 1   
    96   89   96 1   
    97   89   97 1   
    98   89   98 1   
    99   90   99 1   
   100   90  100 1   
   101   90  101 1   
   102  102  103 1   
   103  102  110 1   
   104  103  104 1   
   105  103  106 1   
   106  103  111 1   
   107  104  105 2   
   108  104  114 1   
   109  106  107 1   
   110  106  112 1   
   111  106  113 1   
   112  107  108 1   
   113  107  109 1   
   114  114  115 1   
   115  114  125 1   
   116  115  116 1   
   117  115  118 1   
   118  115  126 1   
   119  116  117 2   
   120  116  134 1   
   121  118  119 1   
   122  118  127 1   
   123  118  128 1   
   124  119  120 ar  
   125  119  121 ar  
   126  120  122 ar  
   127  120  129 1   
   128  121  123 ar  
   129  121  130 1   
   130  122  124 ar  
   131  122  131 1   
   132  123  124 ar  
   133  123  132 1   
   134  124  133 1   
   135  134  135 1   
   136  134  140 1   
   137  135  136 1   
   138  135  138 1   
   139  135  141 1   
   140  136  137 2   
   141  136  148 1   
   142  138  139 1   
   143  138  142 1   
   144  138  143 1   
   145  139  140 1   
   146  139  144 1   
   147  139  145 1   
   148  140  146 1   
   149  140  147 1   
   150  148  149 1   
   151  148  157 1   
   152  149  150 1   
   153  149  152 1   
   154  149  158 1   
   155  150  151 2   
   156  150  163 1   
   157  152  153 1   
   158  152  159 1   
   159  152  160 1   
   160  153  154 1   
   161  153  161 1   
   162  153  162 1   
   163  154  155 1   
   164  154  156 1   
   165  163  164 1   
   166  163  168 1   
   167  164  165 1   
   168  164  166 1   
   169  164  167 1   
   170  170  171 1   
   171  170  172 1   
   172  173  174 1   
   173  173  175 1   
@<TRIPOS>SUBSTRUCTURE
     1 MOL         1 TEMP              0 ****  ****    0 ROOT
