@<TRIPOS>MOLECULE
MOL
  179   176     1     0     0
SMALL
resp


@<TRIPOS>ATOM
      1 C1          1.6880    2.5200    6.2130 c3        1 MOL     -0.273647
      2 C2          1.1700    2.1130    4.8260 c         1 MOL      0.720552
      3 O1          1.9010    1.7610    3.9050 o         1 MOL     -0.606994
      4 H1          0.8610    2.5190    6.9230 hc        1 MOL      0.071867
      5 H2          2.4480    1.8100    6.5400 hc        1 MOL      0.071867
      6 H3          2.1210    3.5180    6.1610 hc        1 MOL      0.071867
      7 N1         -0.1290    2.3730    4.5630 n         1 MOL     -0.641066
      8 C3         -0.7860    2.1000    3.2640 c3        1 MOL      0.056783
      9 C4         -0.9390    3.4590    2.4990 c         1 MOL      0.594015
     10 O2         -1.7830    4.2640    2.9190 o         1 MOL     -0.534340
     11 C5         -2.1150    1.3210    3.4110 c3        1 MOL      0.057786
     12 C6         -2.7280    0.9970    2.0010 c         1 MOL      0.665863
     13 O3         -2.0850    1.3120    0.9370 o         1 MOL     -0.740758
     14 O4         -3.9040    0.5410    1.9610 o         1 MOL     -0.740758
     15 H4         -0.6790    2.8240    5.2860 hn        1 MOL      0.338950
     16 H5         -0.0800    1.5090    2.6800 h1        1 MOL      0.046173
     17 H6         -2.6800    2.0180    4.0200 hc        1 MOL     -0.014040
     18 H7         -2.0000    0.4180    4.0070 hc        1 MOL     -0.014040
     19 N2         -0.0480    3.6280    1.5500 n         1 MOL     -0.281180
     20 C7          0.0490    4.8940    0.8060 c3        1 MOL     -0.347710
     21 C8         -1.1520    5.3340    0.0190 c         1 MOL      0.544175
     22 O5         -1.6720    6.4270    0.0780 o         1 MOL     -0.539002
     23 C9          1.3560    5.0220   -0.1160 c3        1 MOL      0.092765
     24 C10         1.6190    6.3250   -0.8140 c3        1 MOL     -0.228955
     25 C11         2.8480    6.4560   -1.7590 c3        1 MOL      0.074190
     26 C12         3.2410    7.9130   -1.9030 c3        1 MOL      0.148665
     27 N3          4.2470    8.1350   -2.9340 n4        1 MOL     -0.451734
     28 H8          0.5460    2.8880    1.2030 hn        1 MOL      0.266141
     29 H9          0.2950    5.5890    1.6200 h1        1 MOL      0.155421
     30 H10         1.2980    4.2570   -0.8920 hc        1 MOL      0.066552
     31 H11         2.2340    4.7800    0.4780 hc        1 MOL      0.066552
     32 H12         1.7460    7.0680   -0.0290 hc        1 MOL      0.065989
     33 H13         0.6690    6.5340   -1.3060 hc        1 MOL      0.065989
     34 H14         2.6790    6.0030   -2.7280 hc        1 MOL      0.010459
     35 H15         3.7180    5.9970   -1.2970 hc        1 MOL      0.010459
     36 H16         3.5430    8.3560   -0.9590 hx        1 MOL      0.056229
     37 H17         2.3830    8.4510   -2.3020 hx        1 MOL      0.056229
     38 H18         5.0910    7.6350   -2.6990 hn        1 MOL      0.348286
     39 H19         3.8650    7.8770   -3.8370 hn        1 MOL      0.348286
     40 H20         4.5760    9.0970   -2.9480 hn        1 MOL      0.348286
     41 N4         -1.6900    4.3710   -0.7750 n         1 MOL     -0.250728
     42 C13        -2.8790    4.5710   -1.6280 c3        1 MOL      0.049419
     43 C14        -4.2260    4.3120   -0.9550 c         1 MOL      0.418498
     44 O6         -5.2370    4.8770   -1.3610 o         1 MOL     -0.560681
     45 C15        -2.7310    3.9500   -3.0280 c3        1 MOL     -0.384758
     46 C16        -2.4560    2.4520   -3.0610 c         1 MOL      0.806939
     47 O7         -2.6300    1.8230   -2.0040 o         1 MOL     -0.698423
     48 O8         -2.2630    1.9230   -4.1990 o         1 MOL     -0.698423
     49 H21        -1.4230    3.4010   -0.6710 hn        1 MOL      0.203024
     50 H22        -2.8320    5.6250   -1.9030 h1        1 MOL      0.092010
     51 H23        -1.9050    4.4580   -3.5210 hc        1 MOL      0.103641
     52 H24        -3.6730    4.0720   -3.5540 hc        1 MOL      0.103641
     53 N5         -4.2320    3.5350    0.1170 n         1 MOL     -0.012570
     54 C17        -5.3520    3.2230    0.9680 c3        1 MOL     -0.282144
     55 C18        -6.2180    2.0400    0.4920 c         1 MOL      0.597702
     56 O9         -7.2220    1.7150    1.1610 o         1 MOL     -0.574062
     57 H25        -3.3260    3.2160    0.4210 hn        1 MOL      0.101593
     58 H26        -5.9530    4.1170    1.1540 h1        1 MOL      0.133171
     59 H27        -5.0610    3.0220    2.0000 h1        1 MOL      0.133171
     60 N6         -5.7750    1.4270   -0.6290 n         1 MOL     -0.492916
     61 C19        -6.3610    0.2560   -1.3490 c3        1 MOL      0.066717
     62 C20        -6.7440   -0.9600   -0.5000 c         1 MOL      0.414979
     63 O10        -7.3250   -1.8780   -1.0020 o         1 MOL     -0.554202
     64 C21        -5.5280   -0.1090   -2.5810 c3        1 MOL     -0.289510
     65 C22        -4.4500   -1.1760   -2.2790 c         1 MOL      0.576381
     66 N7         -4.6160   -2.3540   -2.8630 n         1 MOL     -0.692734
     67 O11        -3.6340   -1.0180   -1.3260 o         1 MOL     -0.699888
     68 H28        -4.9280    1.8080   -1.0390 hn        1 MOL      0.323339
     69 H29        -7.2970    0.5650   -1.8230 h1        1 MOL      0.096302
     70 H30        -4.9610    0.7590   -2.9170 hc        1 MOL      0.124696
     71 H31        -6.1790   -0.3670   -3.4070 hc        1 MOL      0.124696
     72 H32        -5.3350   -2.3750   -3.5720 hn        1 MOL      0.351185
     73 H33        -4.1360   -3.1570   -2.4890 hn        1 MOL      0.351185
     74 N8         -6.1600   -1.0510    0.6850 n         1 MOL     -0.088011
     75 C23        -6.5110   -2.0190    1.7050 c3        1 MOL     -0.196218
     76 C24        -5.4420   -3.0080    2.0460 c         1 MOL      0.494137
     77 O12        -5.6640   -3.9970    2.7440 o         1 MOL     -0.554820
     78 H34        -5.4830   -0.3410    0.8930 hn        1 MOL      0.275769
     79 H35        -7.4170   -2.4940    1.3190 h1        1 MOL      0.116460
     80 H36        -6.9250   -1.5790    2.6130 h1        1 MOL      0.116460
     81 N9         -4.2200   -2.8380    1.4500 n         1 MOL     -0.251750
     82 C25        -3.0220   -3.6990    1.7890 c3        1 MOL     -0.029949
     83 C26        -1.6490   -2.9880    1.5400 c         1 MOL      0.664822
     84 O13        -1.5600   -1.8850    0.9800 o         1 MOL     -0.647926
     85 C27        -3.2010   -5.0400    1.0040 c3        1 MOL     -0.113384
     86 C28        -3.2720   -4.9610   -0.4460 ca        1 MOL      0.054218
     87 C29        -2.1030   -4.6930   -1.2040 ca        1 MOL     -0.115830
     88 C30        -4.4690   -5.2700   -1.0840 ca        1 MOL     -0.115830
     89 C31        -2.1700   -4.6740   -2.5980 ca        1 MOL     -0.306127
     90 C32        -4.5460   -5.3120   -2.4850 ca        1 MOL     -0.306127
     91 C33        -3.3500   -5.0460   -3.2430 ca        1 MOL      0.361684
     92 O14        -3.3830   -5.0720   -4.5910 oh        1 MOL     -0.516318
     93 H37        -4.1170   -1.9740    0.9530 hn        1 MOL      0.241050
     94 H38        -3.0330   -3.8740    2.8610 h1        1 MOL      0.088796
     95 H39        -4.0380   -5.5930    1.4340 hc        1 MOL      0.058460
     96 H40        -2.4160   -5.7140    1.3750 hc        1 MOL      0.058460
     97 H41        -1.1550   -4.4610   -0.7380 ha        1 MOL      0.142029
     98 H42        -5.3350   -5.5320   -0.4950 ha        1 MOL      0.142029
     99 H43        -1.2530   -4.4050   -3.1040 ha        1 MOL      0.164056
    100 H44        -5.5140   -5.3940   -2.9500 ha        1 MOL      0.164056
    101 H45        -4.2850   -5.1480   -4.9100 ho        1 MOL      0.379478
    102 N10        -0.5770   -3.5170    2.0840 n         1 MOL     -0.566022
    103 C34         0.8290   -3.1230    2.0740 c3        1 MOL      0.085620
    104 C35         1.5760   -3.8790    1.0150 c         1 MOL      0.431029
    105 O15         1.4350   -5.0780    0.8180 o         1 MOL     -0.557226
    106 C36         1.4620   -3.3850    3.4750 c3        1 MOL      0.114206
    107 C37         0.6300   -2.7440    4.5430 c3        1 MOL     -0.189895
    108 C38         2.9010   -2.8060    3.5170 c3        1 MOL     -0.214945
    109 C39         0.1880   -1.2520    4.2740 c3        1 MOL      0.068866
    110 H46        -0.7940   -4.3740    2.5830 hn        1 MOL      0.315219
    111 H47         1.0060   -2.0680    1.9210 h1        1 MOL      0.104986
    112 H48         1.5390   -4.4580    3.6420 hc        1 MOL      0.022583
    113 H49         1.2420   -2.7850    5.4430 hc        1 MOL      0.042580
    114 H50        -0.2360   -3.3840    4.7240 hc        1 MOL      0.042580
    115 H51         3.4600   -3.1190    4.4110 hc        1 MOL      0.046979
    116 H52         3.5120   -3.1810    2.6860 hc        1 MOL      0.046979
    117 H53         2.9190   -1.7210    3.5080 hc        1 MOL      0.046979
    118 H54         1.0410   -0.5960    4.1020 hc        1 MOL      0.006887
    119 H55        -0.5130   -1.2870    3.4350 hc        1 MOL      0.006887
    120 H56        -0.3180   -0.7940    5.1200 hc        1 MOL      0.006887
    121 N11         2.4750   -3.1860    0.3640 n         1 MOL     -0.060121
    122 C40         3.4620   -3.7440   -0.5560 c3        1 MOL     -0.002571
    123 C41         4.8730   -3.3490   -0.1820 c         1 MOL      0.300637
    124 O16         5.0530   -2.4460    0.6120 o         1 MOL     -0.254296
    125 C42         3.2670   -3.0560   -1.9630 c3        1 MOL     -0.195618
    126 O17         3.3090   -1.6140   -1.8110 oh        1 MOL     -0.418150
    127 H57         2.4950   -2.1810    0.4200 hn        1 MOL      0.133745
    128 H58         3.3440   -4.8180   -0.7080 h1        1 MOL      0.106186
    129 H59         2.3720   -3.4490   -2.4500 h1        1 MOL      0.110448
    130 H60         4.0330   -3.3450   -2.6790 h1        1 MOL      0.110448
    131 H61         3.1860   -1.2370   -2.6880 ho        1 MOL      0.375766
    132 N12         5.8610   -3.9730   -0.8420 n         1 MOL     -0.354618
    133 C43         7.3270   -3.6210   -0.9040 c3        1 MOL      0.029114
    134 C44         7.6530   -2.1670   -1.2930 c         1 MOL      0.490221
    135 O18         8.5410   -1.5730   -0.7280 o         1 MOL     -0.503117
    136 C45         8.1770   -4.5670   -1.8190 c3        1 MOL     -0.306399
    137 H62         5.5400   -4.8050   -1.3060 hn        1 MOL      0.270624
    138 H63         7.6890   -3.8250    0.1100 h1        1 MOL      0.105017
    139 H64         8.1730   -5.6190   -1.5150 hc        1 MOL      0.102950
    140 H65         7.7960   -4.4370   -2.8250 hc        1 MOL      0.102950
    141 H66         9.2240   -4.2480   -1.8370 hc        1 MOL      0.102950
    142 N13         6.8830   -1.6020   -2.1840 n         1 MOL     -0.341011
    143 C46         7.1640   -0.1930   -2.5780 c3        1 MOL      0.122300
    144 C47         6.7340    0.7430   -1.4450 c         1 MOL      0.313851
    145 O19         7.4570    1.7140   -1.1700 o         1 MOL     -0.513148
    146 C48         6.5240    0.0660   -3.9210 c3        1 MOL     -0.382603
    147 H67         6.1120   -2.0440   -2.6660 hn        1 MOL      0.231413
    148 H68         8.2480   -0.0680   -2.6150 h1        1 MOL      0.106218
    149 H69         5.4340   -0.0340   -3.9220 hc        1 MOL      0.108278
    150 H70         6.7110    1.0910   -4.2350 hc        1 MOL      0.108278
    151 H71         7.0290   -0.5390   -4.6810 hc        1 MOL      0.108278
    152 N14         5.6270    0.4640   -0.7880 n         1 MOL     -0.076290
    153 C49         5.0510    1.2090    0.3970 c3        1 MOL     -0.204729
    154 C50         5.8350    0.8930    1.6920 c         1 MOL      0.463098
    155 O20         6.0510    1.8170    2.4640 o         1 MOL     -0.553685
    156 C51         3.5950    1.0120    0.5370 c3        1 MOL      0.128312
    157 C52         2.8370    1.6000   -0.6070 c3        1 MOL     -0.096305
    158 C53         1.3890    1.2300   -0.7040 c         1 MOL      0.862786
    159 O21         0.7720    1.3410   -1.7920 o         1 MOL     -0.844744
    160 O22         0.7880    0.7110    0.2580 o         1 MOL     -0.844744
    161 H72         5.1140   -0.2970   -1.2010 hn        1 MOL      0.178387
    162 H73         5.1390    2.2910    0.3700 h1        1 MOL      0.123017
    163 H74         3.1570    1.4090    1.4450 hc        1 MOL      0.037033
    164 H75         3.3690   -0.0410    0.6680 hc        1 MOL      0.037033
    165 H76         3.2140    1.2500   -1.5610 hc        1 MOL     -0.056498
    166 H77         2.8290    2.6840   -0.4700 hc        1 MOL     -0.056498
    167 N15         6.2700   -0.3480    1.8350 n         1 MOL      0.051976
    168 C54         7.0800   -0.7760    2.9240 c3        1 MOL     -0.288461
    169 H78         7.6500    0.0710    3.3070 h1        1 MOL      0.107216
    170 H79         6.4450   -1.1730    3.7150 h1        1 MOL      0.107216
    171 H80         7.7660   -1.5500    2.5840 h1        1 MOL      0.107216
    172 H81         5.8200   -0.9390    1.1530 hn        1 MOL     -0.081036
    173 Ca1        -1.2810   -0.1800   -0.9830 Ca        1 MOL      1.815308
    174 O23         0.4370   -1.9570   -2.0250 oh        1 MOL     -0.864501
    175 H82         0.3560   -2.0260   -2.9700 ho        1 MOL      0.394275
    176 H83         1.3580   -1.7540   -1.8710 ho        1 MOL      0.394275
    177 O24        -1.4440   -0.2840   -3.6550 oh        1 MOL     -0.864501
    178 H84        -1.6850    0.6360   -3.7650 ho        1 MOL      0.394275
    179 H85        -1.4710   -0.6440   -4.5440 ho        1 MOL      0.394275
@<TRIPOS>BOND
     1    1    2 1   
     2    1    4 1   
     3    1    5 1   
     4    1    6 1   
     5    2    3 2   
     6    2    7 1   
     7    7    8 1   
     8    7   15 1   
     9    8    9 1   
    10    8   11 1   
    11    8   16 1   
    12    9   10 2   
    13    9   19 1   
    14   11   12 1   
    15   11   17 1   
    16   11   18 1   
    17   12   13 1   
    18   12   14 1   
    19   19   20 1   
    20   19   28 1   
    21   20   21 1   
    22   20   23 1   
    23   20   29 1   
    24   21   22 2   
    25   21   41 1   
    26   23   24 1   
    27   23   30 1   
    28   23   31 1   
    29   24   25 1   
    30   24   32 1   
    31   24   33 1   
    32   25   26 1   
    33   25   34 1   
    34   25   35 1   
    35   26   27 1   
    36   26   36 1   
    37   26   37 1   
    38   27   38 1   
    39   27   39 1   
    40   27   40 1   
    41   41   42 1   
    42   41   49 1   
    43   42   43 1   
    44   42   45 1   
    45   42   50 1   
    46   43   44 2   
    47   43   53 1   
    48   45   46 1   
    49   45   51 1   
    50   45   52 1   
    51   46   47 1   
    52   46   48 1   
    53   53   54 1   
    54   53   57 1   
    55   54   55 1   
    56   54   58 1   
    57   54   59 1   
    58   55   56 2   
    59   55   60 1   
    60   60   61 1   
    61   60   68 1   
    62   61   62 1   
    63   61   64 1   
    64   61   69 1   
    65   62   63 2   
    66   62   74 1   
    67   64   65 1   
    68   64   70 1   
    69   64   71 1   
    70   65   66 1   
    71   65   67 2   
    72   66   72 1   
    73   66   73 1   
    74   74   75 1   
    75   74   78 1   
    76   75   76 1   
    77   75   79 1   
    78   75   80 1   
    79   76   77 2   
    80   76   81 1   
    81   81   82 1   
    82   81   93 1   
    83   82   83 1   
    84   82   85 1   
    85   82   94 1   
    86   83   84 2   
    87   83  102 1   
    88   85   86 1   
    89   85   95 1   
    90   85   96 1   
    91   86   87 ar  
    92   86   88 ar  
    93   87   89 ar  
    94   87   97 1   
    95   88   90 ar  
    96   88   98 1   
    97   89   91 ar  
    98   89   99 1   
    99   90   91 ar  
   100   90  100 1   
   101   91   92 1   
   102   92  101 1   
   103  102  103 1   
   104  102  110 1   
   105  103  104 1   
   106  103  106 1   
   107  103  111 1   
   108  104  105 2   
   109  104  121 1   
   110  106  107 1   
   111  106  108 1   
   112  106  112 1   
   113  107  109 1   
   114  107  113 1   
   115  107  114 1   
   116  108  115 1   
   117  108  116 1   
   118  108  117 1   
   119  109  118 1   
   120  109  119 1   
   121  109  120 1   
   122  121  122 1   
   123  121  127 1   
   124  122  123 1   
   125  122  125 1   
   126  122  128 1   
   127  123  124 2   
   128  123  132 1   
   129  125  126 1   
   130  125  129 1   
   131  125  130 1   
   132  126  131 1   
   133  132  133 1   
   134  132  137 1   
   135  133  134 1   
   136  133  136 1   
   137  133  138 1   
   138  134  135 2   
   139  134  142 1   
   140  136  139 1   
   141  136  140 1   
   142  136  141 1   
   143  142  143 1   
   144  142  147 1   
   145  143  144 1   
   146  143  146 1   
   147  143  148 1   
   148  144  145 2   
   149  144  152 1   
   150  146  149 1   
   151  146  150 1   
   152  146  151 1   
   153  152  153 1   
   154  152  161 1   
   155  153  154 1   
   156  153  156 1   
   157  153  162 1   
   158  154  155 2   
   159  154  167 1   
   160  156  157 1   
   161  156  163 1   
   162  156  164 1   
   163  157  158 1   
   164  157  165 1   
   165  157  166 1   
   166  158  159 1   
   167  158  160 1   
   168  167  168 1   
   169  167  172 1   
   170  168  169 1   
   171  168  170 1   
   172  168  171 1   
   173  174  175 1   
   174  174  176 1   
   175  177  178 1   
   176  177  179 1   
@<TRIPOS>SUBSTRUCTURE
     1 MOL         1 TEMP              0 ****  ****    0 ROOT
