@<TRIPOS>MOLECULE
MOL
  179   176     1     0     0
SMALL
resp


@<TRIPOS>ATOM
      1 C1          2.4790    2.5610    4.6480 c3        1 MOL     -0.460140
      2 C2          1.6220    2.3770    3.3960 c         1 MOL      0.665014
      3 O1          2.1240    2.2380    2.2530 o         1 MOL     -0.519490
      4 H1          2.2260    3.5090    5.1250 hc        1 MOL      0.123630
      5 H2          2.2890    1.7440    5.3430 hc        1 MOL      0.123630
      6 H3          3.5330    2.5650    4.3700 hc        1 MOL      0.123630
      7 N1          0.2980    2.4580    3.5050 n         1 MOL     -0.619321
      8 C3         -0.5430    2.2880    2.3500 c3        1 MOL      0.401493
      9 C4         -0.6620    3.5730    1.5520 c         1 MOL      0.267735
     10 O2         -1.5900    4.3220    1.7090 o         1 MOL     -0.443825
     11 C5         -1.9960    1.7740    2.7510 c3        1 MOL     -0.372607
     12 C6         -2.7680    1.5480    1.5430 c         1 MOL      0.784250
     13 O3         -2.2190    1.4860    0.4200 o         1 MOL     -0.665909
     14 O4         -4.0010    1.4890    1.7390 o         1 MOL     -0.665909
     15 H4         -0.1180    2.5270    4.4220 hn        1 MOL      0.324509
     16 H5         -0.0550    1.5650    1.6940 h1        1 MOL     -0.079832
     17 H6         -2.3830    2.5840    3.3810 hc        1 MOL      0.091670
     18 H7         -1.9980    0.8090    3.2680 hc        1 MOL      0.091670
     19 N2          0.3770    3.8150    0.6790 n         1 MOL     -0.079301
     20 C7          0.5740    5.1570    0.1290 c3        1 MOL     -0.161994
     21 C8         -0.5640    5.6350   -0.7340 c         1 MOL      0.420698
     22 O5         -0.8460    6.8170   -0.7170 o         1 MOL     -0.549446
     23 C9          1.9840    5.4810   -0.5020 c3        1 MOL     -0.098900
     24 C10         3.1640    4.9890    0.3020 c3        1 MOL      0.170167
     25 C11         3.3100    5.3700    1.7800 c3        1 MOL     -0.410836
     26 C12         3.2930    6.9510    1.9130 c3        1 MOL      0.294626
     27 N3          3.5930    7.4100    3.2880 n4        1 MOL     -0.527707
     28 H8          1.0450    3.0770    0.5120 hn        1 MOL      0.215954
     29 H9          0.5240    5.8260    0.9900 h1        1 MOL      0.100691
     30 H10         2.0760    6.5570   -0.3550 hc        1 MOL      0.046649
     31 H11         2.1700    5.1650   -1.5260 hc        1 MOL      0.046649
     32 H12         4.0140    5.3930   -0.2560 hc        1 MOL      0.016979
     33 H13         3.3300    3.9110    0.3130 hc        1 MOL      0.016979
     34 H14         4.2410    4.9280    2.1150 hc        1 MOL      0.125192
     35 H15         2.4560    4.9380    2.3020 hc        1 MOL      0.125192
     36 H16         2.3010    7.3300    1.6640 hx        1 MOL      0.032205
     37 H17         3.9820    7.4670    1.2490 hx        1 MOL      0.032205
     38 H18         4.5990    7.3980    3.3920 hn        1 MOL      0.360718
     39 H19         3.2110    8.3300    3.4250 hn        1 MOL      0.360718
     40 H20         3.1600    6.9020    4.0480 hn        1 MOL      0.360718
     41 N4         -1.3080    4.7550   -1.3850 n         1 MOL     -0.111848
     42 C13        -2.4560    5.0330   -2.2330 c3        1 MOL      0.026231
     43 C14        -3.8150    4.8190   -1.5780 c         1 MOL      0.399768
     44 O6         -4.8800    5.1990   -2.0900 o         1 MOL     -0.540699
     45 C15        -2.4960    4.3880   -3.5930 c3        1 MOL     -0.095926
     46 C16        -2.4380    2.8940   -3.6030 c         1 MOL      0.772027
     47 O7         -2.1970    2.2400   -2.5230 o         1 MOL     -0.725987
     48 O8         -2.6250    2.2950   -4.7000 o         1 MOL     -0.725987
     49 H21        -1.0850    3.7710   -1.3230 hn        1 MOL      0.098836
     50 H22        -2.4750    6.1000   -2.4570 h1        1 MOL      0.078863
     51 H23        -1.5470    4.7080   -4.0150 hc        1 MOL      0.029921
     52 H24        -3.2860    4.6640   -4.2840 hc        1 MOL      0.029921
     53 N5         -3.7950    4.2250   -0.3580 n         1 MOL     -0.054577
     54 C17        -5.0670    4.0730    0.4470 c3        1 MOL     -0.361319
     55 C18        -5.9390    2.8320    0.1560 c         1 MOL      0.607797
     56 O9         -7.0730    2.7170    0.6680 o         1 MOL     -0.600604
     57 H25        -2.9220    3.8720    0.0040 hn        1 MOL      0.038671
     58 H26        -5.6690    4.9710    0.2740 h1        1 MOL      0.156114
     59 H27        -4.7850    4.0460    1.4970 h1        1 MOL      0.156114
     60 N6         -5.4560    1.9420   -0.6700 n         1 MOL     -0.235477
     61 C19        -6.3240    0.9410   -1.2800 c3        1 MOL     -0.091963
     62 C20        -6.6640   -0.2620   -0.2980 c         1 MOL      0.352605
     63 O10        -7.5240   -1.1000   -0.6850 o         1 MOL     -0.541044
     64 C21        -5.6280    0.4660   -2.5090 c3        1 MOL     -0.008375
     65 C22        -4.7020   -0.7570   -2.3040 c         1 MOL      0.390344
     66 N7         -4.9370   -1.8310   -3.0430 n         1 MOL     -0.649718
     67 O11        -3.7790   -0.6260   -1.5270 o         1 MOL     -0.456543
     68 H28        -4.4700    2.0890   -0.8700 hn        1 MOL      0.174154
     69 H29        -7.2710    1.3910   -1.5910 h1        1 MOL      0.138663
     70 H30        -5.0310    1.2460   -2.9780 hc        1 MOL      0.049529
     71 H31        -6.4080    0.2450   -3.2260 hc        1 MOL      0.049529
     72 H32        -5.6820   -1.8280   -3.7270 hn        1 MOL      0.350155
     73 H33        -4.4860   -2.7070   -2.8400 hn        1 MOL      0.350155
     74 N8         -6.1450   -0.3320    0.8880 n         1 MOL     -0.052782
     75 C23        -6.3230   -1.3900    1.8660 c3        1 MOL     -0.165702
     76 C24        -5.2340   -2.3940    1.9920 c         1 MOL      0.513983
     77 O12        -5.5490   -3.3910    2.5850 o         1 MOL     -0.510310
     78 H34        -5.4040    0.3310    1.0890 hn        1 MOL      0.182592
     79 H35        -7.2810   -1.8880    1.7220 h1        1 MOL      0.106250
     80 H36        -6.5220   -0.8550    2.7940 h1        1 MOL      0.106250
     81 N9         -4.0500   -2.1750    1.4230 n         1 MOL     -0.315696
     82 C25        -2.9290   -3.1290    1.5420 c3        1 MOL      0.148395
     83 C26        -1.5440   -2.4020    1.4590 c         1 MOL      0.538807
     84 O13        -1.3840   -1.3390    0.7940 o         1 MOL     -0.633529
     85 C27        -2.8820   -4.1520    0.4660 c3        1 MOL      0.124128
     86 C28        -4.1010   -5.0460    0.4290 ca        1 MOL     -0.128731
     87 C29        -5.3040   -4.7410   -0.2330 ca        1 MOL     -0.170123
     88 C30        -4.1340   -6.2410    1.1770 ca        1 MOL     -0.170123
     89 C31        -6.3700   -5.6500   -0.3170 ca        1 MOL     -0.109317
     90 C32        -5.2060   -7.1260    1.1480 ca        1 MOL     -0.109317
     91 C33        -6.3000   -6.8530    0.3040 ca        1 MOL      0.202057
     92 O14        -7.3410   -7.7220    0.2860 oh        1 MOL     -0.423962
     93 H37        -3.8610   -1.2650    1.0200 hn        1 MOL      0.170465
     94 H38        -2.8820   -3.5780    2.5340 h1        1 MOL      0.016289
     95 H39        -2.0560   -4.8140    0.7300 hc        1 MOL     -0.001189
     96 H40        -2.7960   -3.6780   -0.5120 hc        1 MOL     -0.001189
     97 H41        -5.3650   -3.7980   -0.7440 ha        1 MOL      0.118407
     98 H42        -3.2750   -6.5750    1.7250 ha        1 MOL      0.118407
     99 H43        -7.2460   -5.4210   -0.9060 ha        1 MOL      0.110718
    100 H44        -5.0420   -8.0760    1.6220 ha        1 MOL      0.110718
    101 H45        -7.0570   -8.4080    0.8970 ho        1 MOL      0.321959
    102 N10        -0.4510   -2.9450    1.9740 n         1 MOL     -0.464838
    103 C34         0.9930   -2.5870    1.8080 c3        1 MOL     -0.239165
    104 C35         1.5710   -3.5380    0.7960 c         1 MOL      0.487672
    105 O15         1.6050   -4.8010    0.8390 o         1 MOL     -0.534859
    106 C36         1.7680   -2.7120    3.1380 c3        1 MOL      0.207269
    107 C37         0.9620   -2.0240    4.3250 c3        1 MOL      0.012278
    108 C38         3.1430   -2.0070    2.9660 c3        1 MOL     -0.183554
    109 C39         1.5290   -2.0850    5.7990 c3        1 MOL     -0.186406
    110 H46        -0.6110   -3.7920    2.4870 hn        1 MOL      0.308353
    111 H47         1.0570   -1.5690    1.4350 h1        1 MOL      0.248130
    112 H48         1.9800   -3.7610    3.3570 hc        1 MOL      0.001075
    113 H49        -0.0790   -2.3560    4.3640 hc        1 MOL      0.009721
    114 H50         0.9870   -0.9610    4.1140 hc        1 MOL      0.009721
    115 H51         3.5050   -1.7350    3.9560 hc        1 MOL      0.041395
    116 H52         3.8870   -2.6430    2.4880 hc        1 MOL      0.041395
    117 H53         2.9560   -1.0880    2.4090 hc        1 MOL      0.041395
    118 H54         1.5610   -3.1480    6.0270 hc        1 MOL      0.050682
    119 H55         2.5390   -1.6880    5.9220 hc        1 MOL      0.050682
    120 H56         0.8720   -1.4930    6.4420 hc        1 MOL      0.050682
    121 N11         2.1430   -2.9360   -0.2730 n         1 MOL     -0.162286
    122 C40         3.1150   -3.7040   -1.1360 c3        1 MOL     -0.032740
    123 C41         4.6060   -3.6050   -0.5530 c         1 MOL      0.393054
    124 O16         5.0170   -2.6330    0.0980 o         1 MOL     -0.295929
    125 C42         3.0430   -3.3080   -2.6350 c3        1 MOL     -0.058863
    126 O17         3.5100   -2.0270   -2.7870 oh        1 MOL     -0.418981
    127 H57         2.0780   -1.9290   -0.3860 hn        1 MOL      0.106027
    128 H58         2.7830   -4.7380   -1.0420 h1        1 MOL      0.076506
    129 H59         1.9970   -3.4570   -2.8650 h1        1 MOL      0.086133
    130 H60         3.7030   -3.9580   -3.2170 h1        1 MOL      0.086133
    131 H61         2.7790   -1.4970   -2.4710 ho        1 MOL      0.336596
    132 N12         5.5010   -4.5390   -0.9580 n         1 MOL     -0.396714
    133 C43         6.9310   -4.3710   -0.7040 c3        1 MOL      0.018542
    134 C44         7.5300   -3.0700   -1.1340 c         1 MOL      0.580502
    135 O18         8.2650   -2.5200   -0.3420 o         1 MOL     -0.547579
    136 C45         7.7480   -5.5350   -1.3050 c3        1 MOL     -0.184605
    137 H62         5.2080   -5.2400   -1.6240 hn        1 MOL      0.273129
    138 H63         7.0680   -4.5310    0.3570 h1        1 MOL      0.105715
    139 H64         7.3770   -6.4980   -0.9570 hc        1 MOL      0.064696
    140 H65         7.8290   -5.4020   -2.3800 hc        1 MOL      0.064696
    141 H66         8.7820   -5.5480   -0.9430 hc        1 MOL      0.064696
    142 N13         7.0950   -2.4740   -2.2490 n         1 MOL     -0.451646
    143 C46         7.4800   -1.2290   -2.7940 c3        1 MOL      0.182772
    144 C47         7.0570   -0.0470   -1.9900 c         1 MOL      0.344801
    145 O19         7.8140    0.9440   -1.8410 o         1 MOL     -0.517551
    146 C48         6.8980   -1.2860   -4.1480 c3        1 MOL     -0.371666
    147 H67         6.3000   -2.9270   -2.6780 hn        1 MOL      0.307311
    148 H68         8.5580   -1.1530   -2.8750 h1        1 MOL      0.086075
    149 H69         5.8770   -1.6580   -4.2600 hc        1 MOL      0.099420
    150 H70         6.9190   -0.2590   -4.5440 hc        1 MOL      0.099420
    151 H71         7.4890   -1.8600   -4.8560 hc        1 MOL      0.099420
    152 N14         5.8680   -0.1070   -1.3890 n         1 MOL      0.053966
    153 C49         5.4520    0.9520   -0.4320 c3        1 MOL     -0.204348
    154 C50         6.3160    0.8660    0.8590 c         1 MOL      0.502200
    155 O20         6.6520    1.8740    1.4870 o         1 MOL     -0.551687
    156 C51         3.9500    0.7680   -0.1890 c3        1 MOL      0.113021
    157 C52         3.1080    1.1630   -1.4070 c3        1 MOL      0.063620
    158 C53         1.6500    0.7940   -1.3260 c         1 MOL      0.640756
    159 O21         0.7980    1.6280   -1.1200 o         1 MOL     -0.690091
    160 O22         1.2770   -0.3680   -1.4860 o         1 MOL     -0.690091
    161 H72         5.3240   -0.9500   -1.4800 hn        1 MOL     -0.099816
    162 H73         5.6040    1.9560   -0.8370 h1        1 MOL      0.094095
    163 H74         3.7400    1.4230    0.6620 hc        1 MOL     -0.047030
    164 H75         3.7850   -0.2930    0.0320 hc        1 MOL     -0.047030
    165 H76         3.5290    0.6980   -2.3010 hc        1 MOL     -0.010775
    166 H77         3.1910    2.2190   -1.6600 hc        1 MOL     -0.010775
    167 N15         6.5980   -0.3650    1.3320 n         1 MOL     -0.080718
    168 C54         7.3980   -0.6290    2.5520 c3        1 MOL     -0.209787
    169 H78         7.2560    0.1850    3.2620 h1        1 MOL      0.092995
    170 H79         7.0730   -1.5670    3.0050 h1        1 MOL      0.092995
    171 H80         8.4540   -0.7000    2.2880 h1        1 MOL      0.092995
    172 H81         6.1980   -1.1520    0.8360 hn        1 MOL      0.076664
    173 Ca1        -1.2900    0.0680   -1.4170 Ca        1 MOL      1.698498
    174 O23        -1.4080   -2.3480   -2.5330 oh        1 MOL     -0.855307
    175 H82        -1.5660   -2.3180   -3.4690 ho        1 MOL      0.406776
    176 H83        -0.9100   -3.1480   -2.4000 ho        1 MOL      0.406776
    177 O24        -0.7770    0.1770   -4.0210 oh        1 MOL     -0.855307
    178 H84        -1.2370    0.9410   -4.3560 ho        1 MOL      0.406776
    179 H85        -0.7440   -0.4340   -4.7670 ho        1 MOL      0.406776
@<TRIPOS>BOND
     1    1    2 1   
     2    1    4 1   
     3    1    5 1   
     4    1    6 1   
     5    2    3 2   
     6    2    7 1   
     7    7    8 1   
     8    7   15 1   
     9    8    9 1   
    10    8   11 1   
    11    8   16 1   
    12    9   10 2   
    13    9   19 1   
    14   11   12 1   
    15   11   17 1   
    16   11   18 1   
    17   12   13 1   
    18   12   14 1   
    19   19   20 1   
    20   19   28 1   
    21   20   21 1   
    22   20   23 1   
    23   20   29 1   
    24   21   22 2   
    25   21   41 1   
    26   23   24 1   
    27   23   30 1   
    28   23   31 1   
    29   24   25 1   
    30   24   32 1   
    31   24   33 1   
    32   25   26 1   
    33   25   34 1   
    34   25   35 1   
    35   26   27 1   
    36   26   36 1   
    37   26   37 1   
    38   27   38 1   
    39   27   39 1   
    40   27   40 1   
    41   41   42 1   
    42   41   49 1   
    43   42   43 1   
    44   42   45 1   
    45   42   50 1   
    46   43   44 2   
    47   43   53 1   
    48   45   46 1   
    49   45   51 1   
    50   45   52 1   
    51   46   47 1   
    52   46   48 1   
    53   53   54 1   
    54   53   57 1   
    55   54   55 1   
    56   54   58 1   
    57   54   59 1   
    58   55   56 2   
    59   55   60 1   
    60   60   61 1   
    61   60   68 1   
    62   61   62 1   
    63   61   64 1   
    64   61   69 1   
    65   62   63 2   
    66   62   74 1   
    67   64   65 1   
    68   64   70 1   
    69   64   71 1   
    70   65   66 1   
    71   65   67 2   
    72   66   72 1   
    73   66   73 1   
    74   74   75 1   
    75   74   78 1   
    76   75   76 1   
    77   75   79 1   
    78   75   80 1   
    79   76   77 2   
    80   76   81 1   
    81   81   82 1   
    82   81   93 1   
    83   82   83 1   
    84   82   85 1   
    85   82   94 1   
    86   83   84 2   
    87   83  102 1   
    88   85   86 1   
    89   85   95 1   
    90   85   96 1   
    91   86   87 ar  
    92   86   88 ar  
    93   87   89 ar  
    94   87   97 1   
    95   88   90 ar  
    96   88   98 1   
    97   89   91 ar  
    98   89   99 1   
    99   90   91 ar  
   100   90  100 1   
   101   91   92 1   
   102   92  101 1   
   103  102  103 1   
   104  102  110 1   
   105  103  104 1   
   106  103  106 1   
   107  103  111 1   
   108  104  105 2   
   109  104  121 1   
   110  106  107 1   
   111  106  108 1   
   112  106  112 1   
   113  107  109 1   
   114  107  113 1   
   115  107  114 1   
   116  108  115 1   
   117  108  116 1   
   118  108  117 1   
   119  109  118 1   
   120  109  119 1   
   121  109  120 1   
   122  121  122 1   
   123  121  127 1   
   124  122  123 1   
   125  122  125 1   
   126  122  128 1   
   127  123  124 2   
   128  123  132 1   
   129  125  126 1   
   130  125  129 1   
   131  125  130 1   
   132  126  131 1   
   133  132  133 1   
   134  132  137 1   
   135  133  134 1   
   136  133  136 1   
   137  133  138 1   
   138  134  135 2   
   139  134  142 1   
   140  136  139 1   
   141  136  140 1   
   142  136  141 1   
   143  142  143 1   
   144  142  147 1   
   145  143  144 1   
   146  143  146 1   
   147  143  148 1   
   148  144  145 2   
   149  144  152 1   
   150  146  149 1   
   151  146  150 1   
   152  146  151 1   
   153  152  153 1   
   154  152  161 1   
   155  153  154 1   
   156  153  156 1   
   157  153  162 1   
   158  154  155 2   
   159  154  167 1   
   160  156  157 1   
   161  156  163 1   
   162  156  164 1   
   163  157  158 1   
   164  157  165 1   
   165  157  166 1   
   166  158  159 1   
   167  158  160 1   
   168  167  168 1   
   169  167  172 1   
   170  168  169 1   
   171  168  170 1   
   172  168  171 1   
   173  174  175 1   
   174  174  176 1   
   175  177  178 1   
   176  177  179 1   
@<TRIPOS>SUBSTRUCTURE
     1 MOL         1 TEMP              0 ****  ****    0 ROOT
