@<TRIPOS>MOLECULE
MOL
  172   171     1     0     0
SMALL
resp


@<TRIPOS>ATOM
      1 C1          0.2260   -3.7460    5.6520 c3        1 MOL     -0.347957
      2 C2          0.6260   -3.4670    4.2040 c         1 MOL      0.733114
      3 O1         -0.0390   -3.6060    3.1850 o         1 MOL     -0.577600
      4 H1          0.0680   -2.8020    6.1740 hc        1 MOL      0.091313
      5 H2         -0.6950   -4.3280    5.6700 hc        1 MOL      0.091313
      6 H3          1.0190   -4.3050    6.1470 hc        1 MOL      0.091313
      7 N1          1.9040   -3.0140    3.9420 n         1 MOL     -0.586638
      8 C3          2.3080   -2.6020    2.6120 c3        1 MOL      0.079710
      9 C4          2.7930   -3.8670    1.8520 c         1 MOL      0.603600
     10 O2          3.6050   -4.6110    2.3760 o         1 MOL     -0.618704
     11 C5          3.3830   -1.4830    2.7160 c3        1 MOL     -0.122805
     12 C6          3.8190   -0.8350    1.4350 c         1 MOL      0.652742
     13 O3          4.8160   -0.0310    1.5330 o         1 MOL     -0.727906
     14 O4          3.3260   -1.0800    0.2840 o         1 MOL     -0.727906
     15 H4          2.5660   -2.8460    4.6940 hn        1 MOL      0.279207
     16 H5          1.4160   -2.1280    2.1860 h1        1 MOL      0.047838
     17 H6          4.2670   -1.8190    3.2590 hc        1 MOL      0.054953
     18 H7          2.9540   -0.7520    3.4010 hc        1 MOL      0.054953
     19 N2          2.2880   -4.1070    0.6760 n         1 MOL     -0.444375
     20 C7          2.8470   -5.2220   -0.1640 c3        1 MOL      0.426517
     21 C8          3.9910   -4.7870   -1.0520 c         1 MOL      0.187347
     22 O5          4.8250   -5.6490   -1.4190 o         1 MOL     -0.567155
     23 C9          1.6640   -5.7490   -0.9240 c3        1 MOL     -0.549101
     24 H8          1.4750   -3.6220    0.3270 hn        1 MOL      0.275547
     25 H9          3.3130   -6.0220    0.4010 h1        1 MOL     -0.003937
     26 H10         2.0240   -6.5570   -1.5640 hc        1 MOL      0.144849
     27 H11         0.9320   -6.0300   -0.1710 hc        1 MOL      0.144849
     28 H12         1.4080   -4.9400   -1.6150 hc        1 MOL      0.144849
     29 N3          4.1020   -3.5510   -1.4390 n         1 MOL      0.205760
     30 C10         5.2110   -3.1050   -2.3180 c3        1 MOL     -0.443801
     31 C11         6.4490   -2.6200   -1.5740 c         1 MOL      0.588321
     32 O6          7.4390   -2.2370   -2.2210 o         1 MOL     -0.508729
     33 C12         4.7420   -1.9490   -3.2250 c3        1 MOL     -0.012181
     34 C13         3.3200   -2.0430   -3.6110 c         1 MOL      0.639756
     35 O7          2.5730   -1.1340   -3.2010 o         1 MOL     -0.688201
     36 O8          2.9560   -2.9450   -4.4010 o         1 MOL     -0.688201
     37 H13         3.3560   -2.9210   -1.1860 hn        1 MOL      0.137187
     38 H14         5.4590   -3.9220   -2.9980 h1        1 MOL      0.186271
     39 H15         5.4130   -1.8070   -4.0730 hc        1 MOL      0.015644
     40 H16         4.9490   -1.0570   -2.6360 hc        1 MOL      0.015644
     41 N4          6.4360   -2.6480   -0.2010 n         1 MOL     -0.387614
     42 C14         7.5010   -1.9700    0.5370 c3        1 MOL     -0.037205
     43 C15         7.8190   -0.4970    0.0940 c         1 MOL      0.425057
     44 O9          8.9870   -0.1900    0.0680 o         1 MOL     -0.565544
     45 H17         5.5800   -2.8360    0.2950 hn        1 MOL      0.248481
     46 H18         8.3730   -2.6260    0.5230 h1        1 MOL      0.067358
     47 H19         7.1290   -1.9610    1.5620 h1        1 MOL      0.067358
     48 N5          6.8250    0.2880   -0.2670 n         1 MOL     -0.153862
     49 C16         7.0070    1.5590   -0.9570 c3        1 MOL     -0.104330
     50 C17         6.6310    2.8080   -0.1290 c         1 MOL      0.447597
     51 O10         6.6800    3.9390   -0.5730 o         1 MOL     -0.557141
     52 C18         6.3520    1.5830   -2.3540 c3        1 MOL     -0.031318
     53 C19         4.7900    1.7980   -2.3690 c         1 MOL      0.485908
     54 N6          4.2310    2.4700   -3.3650 n         1 MOL     -0.679513
     55 O11         4.1180    1.5810   -1.3790 o         1 MOL     -0.549660
     56 H20         5.8880   -0.0210   -0.0650 hn        1 MOL      0.197211
     57 H21         8.0730    1.6770   -1.1500 h1        1 MOL      0.110006
     58 H22         6.6240    0.7100   -2.9300 hc        1 MOL      0.041901
     59 H23         6.8090    2.3420   -2.9810 hc        1 MOL      0.041901
     60 H24         4.7320    2.6400   -4.2220 hn        1 MOL      0.329545
     61 H25         3.2500    2.6590   -3.1870 hn        1 MOL      0.329545
     62 N7          6.0970    2.5460    1.0510 n         1 MOL     -0.238441
     63 C20         5.9620    3.5830    2.1250 c3        1 MOL     -0.206474
     64 C21         4.6700    4.3360    2.0940 c         1 MOL      0.696518
     65 O12         4.5170    5.1440    3.0060 o         1 MOL     -0.632290
     66 H26         5.9000    1.5910    1.3190 hn        1 MOL      0.250722
     67 H27         6.7050    4.3670    2.0520 h1        1 MOL      0.105564
     68 H28         5.9880    3.1000    3.1030 h1        1 MOL      0.105564
     69 N8          3.7760    4.1600    1.1490 n         1 MOL     -0.450596
     70 C22         2.3540    4.5800    1.2010 c3        1 MOL     -0.059214
     71 C23         1.4060    3.3650    1.0720 c         1 MOL      0.671648
     72 O13         1.6190    2.3090    0.5220 o         1 MOL     -0.582941
     73 C24         2.0050    5.6240    0.1360 c3        1 MOL      0.373260
     74 C25         2.7530    6.8930    0.4220 c3        1 MOL     -0.387582
     75 O14         2.3810    5.1960   -1.1850 oh        1 MOL     -0.609271
     76 H29         3.9450    3.4060    0.4990 hn        1 MOL      0.345457
     77 H30         2.1700    5.0350    2.1720 h1        1 MOL      0.082088
     78 H31         0.9260    5.7320    0.1750 h1        1 MOL     -0.016035
     79 H32         2.5120    5.9980   -1.7050 ho        1 MOL      0.387600
     80 H33         2.2730    7.3700    1.2730 hc        1 MOL      0.100437
     81 H34         3.8120    6.6660    0.5550 hc        1 MOL      0.100437
     82 H35         2.6510    7.6080   -0.4070 hc        1 MOL      0.100437
     83 N9          0.2660    3.5620    1.7640 n         1 MOL     -0.550234
     84 C26        -0.8560    2.7130    1.7100 c3        1 MOL      0.096710
     85 C27        -1.5990    2.9580    0.3870 c         1 MOL      0.622017
     86 O15        -1.8110    4.1130    0.0190 o         1 MOL     -0.576903
     87 C28        -1.7970    2.7630    2.9440 c3        1 MOL     -0.083442
     88 C29        -1.3310    1.7480    3.9900 c3        1 MOL      0.176212
     89 C30        -3.2890    2.4800    2.6750 c3        1 MOL     -0.161869
     90 C31        -1.8770    1.9770    5.4200 c3        1 MOL     -0.316700
     91 H36         0.0800    4.4360    2.2340 hn        1 MOL      0.273145
     92 H37        -0.4250    1.7130    1.6800 h1        1 MOL      0.081344
     93 H38        -1.6050    3.7290    3.4060 hc        1 MOL      0.054593
     94 H39        -0.2430    1.7120    4.0220 hc        1 MOL     -0.018429
     95 H40        -1.6570    0.7590    3.6660 hc        1 MOL     -0.018429
     96 H41        -3.6590    2.8650    1.7300 hc        1 MOL      0.020789
     97 H42        -3.5020    1.4340    2.4560 hc        1 MOL      0.020789
     98 H43        -3.9470    2.8370    3.4690 hc        1 MOL      0.020789
     99 H44        -2.9090    1.6160    5.4880 hc        1 MOL      0.072504
    100 H45        -1.3510    1.3200    6.1140 hc        1 MOL      0.072504
    101 H46        -1.8570    3.0330    5.6450 hc        1 MOL      0.072504
    102 N10        -2.0320    1.8660   -0.2870 n         1 MOL     -0.526819
    103 C32        -3.0160    1.9520   -1.3130 c3        1 MOL      0.260925
    104 C33        -4.4020    1.5160   -0.7990 c         1 MOL      0.488349
    105 O16        -4.4260    0.9160    0.2700 o         1 MOL     -0.273940
    106 C34        -2.6350    1.0700   -2.5150 c3        1 MOL     -0.560013
    107 C35        -1.1490    1.3200   -2.9370 c         1 MOL      0.902415
    108 O17        -0.8750    2.4590   -3.3420 o         1 MOL     -0.738623
    109 O18        -0.2250    0.4560   -2.9210 o         1 MOL     -0.738623
    110 H47        -1.7600    0.9310   -0.0640 hn        1 MOL      0.253633
    111 H48        -3.1980    2.9760   -1.6030 h1        1 MOL      0.037742
    112 H49        -3.2570    1.5130   -3.2880 hc        1 MOL      0.121641
    113 H50        -2.7270   -0.0110   -2.3940 hc        1 MOL      0.121641
    114 N11        -5.4600    1.7410   -1.5720 n         1 MOL     -0.714675
    115 C36        -6.9020    1.2650   -1.0960 c3        1 MOL      0.228948
    116 C37        -6.9750   -0.2300   -0.7770 c         1 MOL      0.404337
    117 O19        -7.6050   -0.5650    0.2110 o         1 MOL     -0.446480
    118 C38        -7.8970    1.7220   -2.1540 c3        1 MOL     -0.120170
    119 C39        -9.2950    1.4350   -1.6130 ca        1 MOL      0.123291
    120 C40        -9.7080    1.7810   -0.3550 ca        1 MOL     -0.194190
    121 C41       -10.2620    0.8630   -2.4410 ca        1 MOL     -0.194190
    122 C42       -10.9730    1.3660    0.1430 ca        1 MOL     -0.119375
    123 C43       -11.5560    0.5640   -2.0010 ca        1 MOL     -0.119375
    124 C44       -11.8770    0.7510   -0.6430 ca        1 MOL     -0.058120
    125 H51        -5.3870    2.1810   -2.4750 hn        1 MOL      0.363478
    126 H52        -7.0250    1.7800   -0.1460 h1        1 MOL      0.083846
    127 H53        -7.9710    1.2960   -3.1590 hc        1 MOL      0.057784
    128 H54        -7.9050    2.7930   -2.3750 hc        1 MOL      0.057784
    129 H55        -9.0340    2.3750    0.2350 ha        1 MOL      0.109280
    130 H56        -9.9700    0.6240   -3.4550 ha        1 MOL      0.109280
    131 H57       -11.2950    1.6650    1.1340 ha        1 MOL      0.106238
    132 H58       -12.3680    0.2150   -2.6330 ha        1 MOL      0.106238
    133 H59       -12.8680    0.5730   -0.2670 ha        1 MOL      0.085339
    134 N12        -6.2920   -1.1170   -1.5370 n         1 MOL     -0.152836
    135 C45        -6.4090   -2.5660   -1.2300 c3        1 MOL      0.097807
    136 C46        -5.7050   -2.9230    0.0260 c         1 MOL      0.217177
    137 O20        -6.0840   -3.8600    0.7560 o         1 MOL     -0.505398
    138 C47        -5.7760   -3.3300   -2.3580 c3        1 MOL     -0.061032
    139 C48        -4.9190   -2.2490   -3.1070 c3        1 MOL      0.018919
    140 C49        -5.8830   -1.0380   -2.9430 c3        1 MOL     -0.142198
    141 H60        -7.4450   -2.8300   -1.0080 h1        1 MOL      0.052063
    142 H61        -5.1130   -4.1230   -2.0230 hc        1 MOL      0.041165
    143 H62        -6.5680   -3.7660   -2.9610 hc        1 MOL      0.041165
    144 H63        -3.9750   -2.0920   -2.5840 hc        1 MOL      0.034889
    145 H64        -4.7200   -2.6410   -4.0960 hc        1 MOL      0.034889
    146 H65        -5.4520   -0.0680   -3.1670 h1        1 MOL      0.062222
    147 H66        -6.7010   -1.2660   -3.6260 h1        1 MOL      0.062222
    148 N13        -4.6180   -2.2430    0.3800 n         1 MOL     -0.045283
    149 C50        -3.8580   -2.3830    1.6700 c3        1 MOL     -0.105010
    150 C51        -4.6330   -1.7860    2.8260 c         1 MOL      0.516976
    151 O21        -4.7300   -2.3660    3.8680 o         1 MOL     -0.561303
    152 C52        -2.4550   -1.7480    1.5390 c3        1 MOL     -0.075069
    153 C53        -1.6070   -2.4510    0.4170 c3        1 MOL     -0.143639
    154 C54        -0.4720   -1.5840   -0.1470 c         1 MOL      0.870494
    155 O22        -0.2730   -0.4130    0.1960 o         1 MOL     -0.821621
    156 O23         0.3360   -2.1720   -0.9100 o         1 MOL     -0.821621
    157 H67        -4.3830   -1.4660   -0.2200 hn        1 MOL      0.215359
    158 H68        -3.7280   -3.4160    1.9950 h1        1 MOL      0.099297
    159 H69        -1.9440   -1.9190    2.4990 hc        1 MOL      0.053694
    160 H70        -2.5120   -0.6800    1.3620 hc        1 MOL      0.053694
    161 H71        -2.2770   -2.6420   -0.4140 hc        1 MOL      0.039597
    162 H72        -1.2090   -3.4040    0.7550 hc        1 MOL      0.039597
    163 N14        -5.3160   -0.6600    2.5570 n         1 MOL     -0.074189
    164 C55        -6.3560   -0.0930    3.4680 c3        1 MOL     -0.219226
    165 H73        -5.9880    0.8340    3.9060 h1        1 MOL      0.084217
    166 H74        -7.2640    0.1090    2.9010 h1        1 MOL      0.084217
    167 H75        -6.5730   -0.8080    4.2610 h1        1 MOL      0.084217
    168 H76        -5.2670   -0.2770    1.6220 hn        1 MOL      0.011809
    169 Ca1         1.7600    0.1990   -1.1730 Ca        1 MOL      1.718334
    170 O24         1.5910    2.6160   -2.5410 oh        1 MOL     -0.826951
    171 H77         1.7330    3.4810   -2.1650 ho        1 MOL      0.402948
    172 H78         0.7720    2.6950   -3.0380 ho        1 MOL      0.402948
@<TRIPOS>BOND
     1    1    2 1   
     2    1    4 1   
     3    1    5 1   
     4    1    6 1   
     5    2    3 2   
     6    2    7 1   
     7    7    8 1   
     8    7   15 1   
     9    8    9 1   
    10    8   11 1   
    11    8   16 1   
    12    9   10 2   
    13    9   19 1   
    14   11   12 1   
    15   11   17 1   
    16   11   18 1   
    17   12   13 1   
    18   12   14 1   
    19   19   20 1   
    20   19   24 1   
    21   20   21 1   
    22   20   23 1   
    23   20   25 1   
    24   21   22 2   
    25   21   29 1   
    26   23   26 1   
    27   23   27 1   
    28   23   28 1   
    29   29   30 1   
    30   29   37 1   
    31   30   31 1   
    32   30   33 1   
    33   30   38 1   
    34   31   32 2   
    35   31   41 1   
    36   33   34 1   
    37   33   39 1   
    38   33   40 1   
    39   34   35 1   
    40   34   36 1   
    41   41   42 1   
    42   41   45 1   
    43   42   43 1   
    44   42   46 1   
    45   42   47 1   
    46   43   44 2   
    47   43   48 1   
    48   48   49 1   
    49   48   56 1   
    50   49   50 1   
    51   49   52 1   
    52   49   57 1   
    53   50   51 2   
    54   50   62 1   
    55   52   53 1   
    56   52   58 1   
    57   52   59 1   
    58   53   54 1   
    59   53   55 2   
    60   54   60 1   
    61   54   61 1   
    62   62   63 1   
    63   62   66 1   
    64   63   64 1   
    65   63   67 1   
    66   63   68 1   
    67   64   65 2   
    68   64   69 1   
    69   69   70 1   
    70   69   76 1   
    71   70   71 1   
    72   70   73 1   
    73   70   77 1   
    74   71   72 2   
    75   71   83 1   
    76   73   74 1   
    77   73   75 1   
    78   73   78 1   
    79   74   80 1   
    80   74   81 1   
    81   74   82 1   
    82   75   79 1   
    83   83   84 1   
    84   83   91 1   
    85   84   85 1   
    86   84   87 1   
    87   84   92 1   
    88   85   86 2   
    89   85  102 1   
    90   87   88 1   
    91   87   89 1   
    92   87   93 1   
    93   88   90 1   
    94   88   94 1   
    95   88   95 1   
    96   89   96 1   
    97   89   97 1   
    98   89   98 1   
    99   90   99 1   
   100   90  100 1   
   101   90  101 1   
   102  102  103 1   
   103  102  110 1   
   104  103  104 1   
   105  103  106 1   
   106  103  111 1   
   107  104  105 2   
   108  104  114 1   
   109  106  107 1   
   110  106  112 1   
   111  106  113 1   
   112  107  108 1   
   113  107  109 1   
   114  114  115 1   
   115  114  125 1   
   116  115  116 1   
   117  115  118 1   
   118  115  126 1   
   119  116  117 2   
   120  116  134 1   
   121  118  119 1   
   122  118  127 1   
   123  118  128 1   
   124  119  120 ar  
   125  119  121 ar  
   126  120  122 ar  
   127  120  129 1   
   128  121  123 ar  
   129  121  130 1   
   130  122  124 ar  
   131  122  131 1   
   132  123  124 ar  
   133  123  132 1   
   134  124  133 1   
   135  134  135 1   
   136  134  140 1   
   137  135  136 1   
   138  135  138 1   
   139  135  141 1   
   140  136  137 2   
   141  136  148 1   
   142  138  139 1   
   143  138  142 1   
   144  138  143 1   
   145  139  140 1   
   146  139  144 1   
   147  139  145 1   
   148  140  146 1   
   149  140  147 1   
   150  148  149 1   
   151  148  157 1   
   152  149  150 1   
   153  149  152 1   
   154  149  158 1   
   155  150  151 2   
   156  150  163 1   
   157  152  153 1   
   158  152  159 1   
   159  152  160 1   
   160  153  154 1   
   161  153  161 1   
   162  153  162 1   
   163  154  155 1   
   164  154  156 1   
   165  163  164 1   
   166  163  168 1   
   167  164  165 1   
   168  164  166 1   
   169  164  167 1   
   170  170  171 1   
   171  170  172 1   
@<TRIPOS>SUBSTRUCTURE
     1 MOL         1 TEMP              0 ****  ****    0 ROOT
