@<TRIPOS>MOLECULE
MOL
  175   173     1     0     0
SMALL
resp


@<TRIPOS>ATOM
      1 C1          0.1650    4.4550    5.1610 c3        1 MOL     -0.340707
      2 C2         -0.3610    4.2590    3.7370 c         1 MOL      0.728778
      3 O1          0.3940    4.4870    2.7920 o         1 MOL     -0.550836
      4 H1         -0.4720    5.1650    5.6880 hc        1 MOL      0.076843
      5 H2          0.1570    3.5000    5.6870 hc        1 MOL      0.076843
      6 H3          1.1840    4.8410    5.1220 hc        1 MOL      0.076843
      7 N1         -1.6350    3.9080    3.5540 n         1 MOL     -0.602568
      8 C3         -2.2060    3.7270    2.2730 c3        1 MOL      0.008962
      9 C4         -2.3790    4.9280    1.3760 c         1 MOL      0.684407
     10 O2         -2.4560    6.0080    1.8910 o         1 MOL     -0.559845
     11 C5         -3.6840    3.2350    2.5620 c3        1 MOL     -0.085646
     12 C6         -4.3760    2.7650    1.2870 c         1 MOL      0.609070
     13 O3         -3.8960    1.8750    0.6490 o         1 MOL     -0.663947
     14 O4         -5.4450    3.3740    0.9550 o         1 MOL     -0.663947
     15 H4         -2.2270    3.6820    4.3450 hn        1 MOL      0.309582
     16 H5         -1.6260    2.9220    1.8220 h1        1 MOL      0.061688
     17 H6         -4.2920    4.0080    3.0460 hc        1 MOL      0.018651
     18 H7         -3.7510    2.4870    3.3490 hc        1 MOL      0.018651
     19 N2         -2.4510    4.6630    0.0610 n         1 MOL     -0.644217
     20 C7         -2.9820    5.5930   -0.9060 c3        1 MOL      0.377259
     21 C8         -3.7950    4.9050   -2.0530 c         1 MOL      0.458717
     22 O5         -3.8720    5.5060   -3.1400 o         1 MOL     -0.562977
     23 C9         -1.8910    6.5700   -1.3860 c3        1 MOL     -0.349146
     24 H8         -2.1790    3.7350   -0.2250 hn        1 MOL      0.437248
     25 H9         -3.7390    6.1740   -0.3580 h1        1 MOL      0.002906
     26 H10        -2.3000    7.3560   -2.0160 hc        1 MOL      0.081143
     27 H11        -1.5280    7.1050   -0.5030 hc        1 MOL      0.081143
     28 H12        -1.1550    5.9690   -1.9020 hc        1 MOL      0.081143
     29 N3         -4.3960    3.7030   -1.8290 n         1 MOL     -0.279473
     30 C10        -5.0730    2.9050   -2.8210 c3        1 MOL      0.111193
     31 C11        -6.2450    2.0780   -2.4080 c         1 MOL      0.386059
     32 O6         -7.2080    1.9450   -3.1770 o         1 MOL     -0.573097
     33 C12        -4.0470    2.0590   -3.6290 c3        1 MOL     -0.252415
     34 C13        -3.2080    1.1180   -2.7830 c         1 MOL      0.724764
     35 O7         -3.8430    0.4470   -1.9500 o         1 MOL     -0.685626
     36 O8         -2.0130    1.0500   -2.8140 o         1 MOL     -0.685626
     37 H13        -4.2460    3.2020   -0.9690 hn        1 MOL      0.047115
     38 H14        -5.5080    3.6250   -3.5260 h1        1 MOL      0.066219
     39 H15        -3.3470    2.7020   -4.1610 hc        1 MOL      0.054470
     40 H16        -4.5950    1.4770   -4.3710 hc        1 MOL      0.054470
     41 N4         -6.4300    1.6900   -1.1620 n         1 MOL     -0.062853
     42 C14        -7.5650    0.9210   -0.6150 c3        1 MOL     -0.363281
     43 C15        -7.5700   -0.5470   -1.1040 c         1 MOL      0.556645
     44 O9         -8.6030   -1.2370   -1.0490 o         1 MOL     -0.603911
     45 H17        -5.5710    1.7910   -0.6450 hn        1 MOL      0.181475
     46 H18        -8.4700    1.4390   -0.9190 h1        1 MOL      0.152482
     47 H19        -7.4660    0.9100    0.4730 h1        1 MOL      0.152482
     48 N5         -6.3700   -1.0840   -1.4230 n         1 MOL     -0.252238
     49 C16        -6.2250   -2.4690   -1.8890 c3        1 MOL      0.097143
     50 C17        -6.0750   -3.4870   -0.6960 c         1 MOL      0.357533
     51 O10        -5.8800   -4.6840   -0.9200 o         1 MOL     -0.504884
     52 C18        -5.0830   -2.6560   -2.8590 c3        1 MOL     -0.219113
     53 C19        -3.6920   -2.3130   -2.4120 c         1 MOL      0.531158
     54 N6         -2.7100   -2.1650   -3.3080 n         1 MOL     -0.645221
     55 O11        -3.4550   -2.1790   -1.1970 o         1 MOL     -0.272937
     56 H20        -5.5460   -0.5000   -1.3910 hn        1 MOL      0.161031
     57 H21        -7.1410   -2.7840   -2.3920 h1        1 MOL      0.088241
     58 H22        -5.3060   -2.0520   -3.7430 hc        1 MOL      0.058408
     59 H23        -5.0690   -3.7090   -3.1330 hc        1 MOL      0.058408
     60 H24        -2.9660   -2.1270   -4.2800 hn        1 MOL      0.328148
     61 H25        -1.7550   -1.9600   -3.0730 hn        1 MOL      0.328148
     62 N7         -6.1780   -3.0240    0.5650 n         1 MOL     -0.183452
     63 C20        -6.2230   -3.9170    1.7290 c3        1 MOL     -0.255510
     64 C21        -4.8240   -4.5350    2.0800 c         1 MOL      0.490038
     65 O12        -4.7540   -5.2880    3.0760 o         1 MOL     -0.552370
     66 H26        -6.4080   -2.0540    0.7250 hn        1 MOL      0.206557
     67 H27        -6.9340   -4.7070    1.5350 h1        1 MOL      0.126094
     68 H28        -6.6010   -3.4470    2.6420 h1        1 MOL      0.126094
     69 N8         -3.7190   -4.1090    1.3710 n         1 MOL     -0.027050
     70 C22        -2.3330   -4.5520    1.5320 c3        1 MOL     -0.472882
     71 C23        -1.2870   -3.4490    1.5800 c         1 MOL      0.814500
     72 O13        -1.5420   -2.4170    0.8810 o         1 MOL     -0.740690
     73 C24        -1.9320   -5.5440    0.4230 c3        1 MOL      0.599563
     74 C25        -2.7620   -6.8360    0.4320 c3        1 MOL     -0.443513
     75 O14        -2.1250   -5.0430   -0.9120 oh        1 MOL     -0.598806
     76 H29        -3.8060   -3.4090    0.6480 hn        1 MOL      0.067693
     77 H30        -2.3290   -5.1390    2.4500 h1        1 MOL      0.118895
     78 H31        -0.8830   -5.7990    0.5490 h1        1 MOL     -0.040349
     79 H32        -2.5030   -4.1630   -0.8480 ho        1 MOL      0.313811
     80 H33        -2.2690   -7.5950   -0.1610 hc        1 MOL      0.101997
     81 H34        -2.9300   -7.1880    1.4440 hc        1 MOL      0.101997
     82 H35        -3.7370   -6.6040    0.0010 hc        1 MOL      0.101997
     83 N9         -0.2190   -3.5860    2.3650 n         1 MOL     -0.532381
     84 C26         0.8600   -2.6590    2.3320 c3        1 MOL      0.055400
     85 C27         1.6800   -2.8540    1.0940 c         1 MOL      0.553626
     86 O15         2.1300   -3.9650    0.9040 o         1 MOL     -0.621782
     87 C28         1.7460   -2.5870    3.6410 c3        1 MOL      0.141237
     88 C29         1.1170   -1.4790    4.5620 c3        1 MOL      0.094290
     89 C30         3.2190   -2.1740    3.3220 c3        1 MOL     -0.375802
     90 C31         1.8750   -1.3220    5.8650 c3        1 MOL     -0.154830
     91 H36         0.0720   -4.4620    2.7590 hn        1 MOL      0.292651
     92 H37         0.4230   -1.6810    2.1120 h1        1 MOL      0.009211
     93 H38         1.6470   -3.5360    4.1620 hc        1 MOL      0.000356
     94 H39         0.0930   -1.8450    4.6170 hc        1 MOL     -0.016599
     95 H40         1.2370   -0.5270    4.0480 hc        1 MOL     -0.016599
     96 H41         3.2220   -1.2020    2.8330 hc        1 MOL      0.083136
     97 H42         3.7110   -2.0820    4.2880 hc        1 MOL      0.083136
     98 H43         3.6790   -2.8960    2.6480 hc        1 MOL      0.083136
     99 H44         1.0400   -0.9100    6.4370 hc        1 MOL      0.027309
    100 H45         2.1040   -2.3090    6.2770 hc        1 MOL      0.027309
    101 H46         2.7650   -0.7100    5.8280 hc        1 MOL      0.027309
    102 N10         1.9450   -1.9260    0.2000 n         1 MOL     -0.125979
    103 C32         2.7300   -1.9830   -1.0340 c3        1 MOL     -0.090439
    104 C33         4.1810   -1.4820   -0.8140 c         1 MOL      0.543304
    105 O16         4.3970   -0.9040    0.2780 o         1 MOL     -0.414469
    106 C34         2.0000   -1.3170   -2.1830 c3        1 MOL     -0.198920
    107 C35         0.5930   -1.8430   -2.4360 c         1 MOL      0.752670
    108 O17        -0.3630   -1.3170   -1.8470 o         1 MOL     -0.703519
    109 O18         0.4160   -2.6870   -3.3850 o         1 MOL     -0.703519
    110 H47         1.6520   -1.0010    0.4790 hn        1 MOL      0.144473
    111 H48         2.8560   -3.0200   -1.3680 h1        1 MOL      0.085987
    112 H49         2.5650   -1.4290   -3.1060 hc        1 MOL      0.054851
    113 H50         1.9920   -0.2410   -2.0310 hc        1 MOL      0.054851
    114 N11         5.1600   -1.8210   -1.6090 n         1 MOL     -0.614506
    115 C36         6.5890   -1.4260   -1.2950 c3        1 MOL      0.366085
    116 C37         6.8850    0.0440   -1.0150 c         1 MOL      0.314379
    117 O19         7.5370    0.3110   -0.0060 o         1 MOL     -0.473049
    118 C38         7.4620   -1.9180   -2.4290 c3        1 MOL     -0.232774
    119 C39         8.9600   -1.8000   -2.2770 ca        1 MOL      0.164225
    120 C40         9.6950   -2.4660   -1.3030 ca        1 MOL     -0.238479
    121 C41         9.6680   -0.8930   -3.0530 ca        1 MOL     -0.238479
    122 C42        11.0440   -2.3510   -1.0420 ca        1 MOL     -0.020098
    123 C43        11.0440   -0.6710   -2.7720 ca        1 MOL     -0.020098
    124 C44        11.7560   -1.3730   -1.7990 ca        1 MOL     -0.190891
    125 H51         5.0480   -2.4270   -2.4060 hn        1 MOL      0.336120
    126 H52         6.8520   -1.9620   -0.3790 h1        1 MOL      0.035253
    127 H53         7.1660   -1.3610   -3.3260 hc        1 MOL      0.060543
    128 H54         7.1600   -2.9560   -2.5580 hc        1 MOL      0.060543
    129 H55         9.1640   -3.1880   -0.6910 ha        1 MOL      0.130822
    130 H56         9.1870   -0.2360   -3.7580 ha        1 MOL      0.130822
    131 H57        11.5140   -2.9930   -0.3120 ha        1 MOL      0.088168
    132 H58        11.5720   -0.0210   -3.4540 ha        1 MOL      0.088168
    133 H59        12.8190   -1.2980   -1.6320 ha        1 MOL      0.119775
    134 N12         6.3610    1.0580   -1.7990 n         1 MOL     -0.090262
    135 C45         6.3390    2.4860   -1.4130 c3        1 MOL      0.006562
    136 C46         5.7220    2.7790   -0.0460 c         1 MOL      0.259146
    137 O20         6.0360    3.7610    0.5360 o         1 MOL     -0.496695
    138 C47         5.5130    3.1590   -2.4920 c3        1 MOL      0.155302
    139 C48         5.7610    2.3190   -3.7260 c3        1 MOL     -0.103382
    140 C49         5.8610    0.9190   -3.1590 c3        1 MOL      0.025678
    141 H60         7.3020    2.9800   -1.5110 h1        1 MOL      0.052415
    142 H61         4.4670    3.1330   -2.2040 hc        1 MOL     -0.013542
    143 H62         5.8490    4.1740   -2.7200 hc        1 MOL     -0.013542
    144 H63         4.9000    2.3780   -4.3860 hc        1 MOL      0.038028
    145 H64         6.6480    2.7080   -4.2240 hc        1 MOL      0.038028
    146 H65         4.9220    0.3800   -3.1840 h1        1 MOL      0.013787
    147 H66         6.6430    0.4240   -3.7420 h1        1 MOL      0.013787
    148 N13         4.7510    2.0030    0.3960 n         1 MOL      0.023967
    149 C50         4.1110    2.1950    1.6510 c3        1 MOL     -0.184738
    150 C51         4.9300    1.5920    2.8020 c         1 MOL      0.479886
    151 O21         4.9320    2.0850    3.9130 o         1 MOL     -0.578373
    152 C52         2.6820    1.6790    1.6710 c3        1 MOL      0.044924
    153 C53         1.7900    2.1930    0.5740 c3        1 MOL     -0.227478
    154 C54         0.4380    1.5410    0.4580 c         1 MOL      0.882484
    155 O22         0.3320    0.3700    0.7560 o         1 MOL     -0.817472
    156 O23        -0.5240    2.2120   -0.0200 o         1 MOL     -0.817472
    157 H67         4.5730    1.1270   -0.0740 hn        1 MOL      0.097464
    158 H68         4.0250    3.2690    1.8290 h1        1 MOL      0.113663
    159 H69         2.2930    1.9890    2.6480 hc        1 MOL      0.042957
    160 H70         2.7070    0.5950    1.8220 hc        1 MOL      0.042957
    161 H71         2.2710    2.0170   -0.3930 hc        1 MOL      0.062021
    162 H72         1.6320    3.2600    0.7540 hc        1 MOL      0.062021
    163 N14         5.5670    0.4860    2.4750 n         1 MOL      0.069323
    164 C55         6.6210   -0.0000    3.3910 c3        1 MOL     -0.257551
    165 H73         7.1470   -0.8350    2.9280 h1        1 MOL      0.085042
    166 H74         7.3270    0.8050    3.5930 h1        1 MOL      0.085042
    167 H75         6.1680   -0.3300    4.3260 h1        1 MOL      0.085042
    168 H76         5.5520    0.1720    1.5130 hn        1 MOL      0.011932
    169 Ca1        -1.9880   -0.0990   -0.1590 Ca        1 MOL      1.698721
    170 O24        -1.7590    0.2470    2.6340 oh        1 MOL     -0.722319
    171 H77        -0.8090    0.3910    2.6670 ho        1 MOL      0.353365
    172 H78        -2.0610    0.4150    3.5240 ho        1 MOL      0.353365
    173 O25        -4.1710   -0.7710    1.3380 oh        1 MOL     -0.722319
    174 H79        -4.3020    0.1380    1.0920 ho        1 MOL      0.353365
    175 H80        -4.8840   -0.9690    1.9300 ho        1 MOL      0.353365
@<TRIPOS>BOND
     1    1    2 1   
     2    1    4 1   
     3    1    5 1   
     4    1    6 1   
     5    2    3 2   
     6    2    7 1   
     7    7    8 1   
     8    7   15 1   
     9    8    9 1   
    10    8   11 1   
    11    8   16 1   
    12    9   10 2   
    13    9   19 1   
    14   11   12 1   
    15   11   17 1   
    16   11   18 1   
    17   12   13 1   
    18   12   14 1   
    19   19   20 1   
    20   19   24 1   
    21   20   21 1   
    22   20   23 1   
    23   20   25 1   
    24   21   22 2   
    25   21   29 1   
    26   23   26 1   
    27   23   27 1   
    28   23   28 1   
    29   29   30 1   
    30   29   37 1   
    31   30   31 1   
    32   30   33 1   
    33   30   38 1   
    34   31   32 2   
    35   31   41 1   
    36   33   34 1   
    37   33   39 1   
    38   33   40 1   
    39   34   35 1   
    40   34   36 1   
    41   41   42 1   
    42   41   45 1   
    43   42   43 1   
    44   42   46 1   
    45   42   47 1   
    46   43   44 2   
    47   43   48 1   
    48   48   49 1   
    49   48   56 1   
    50   49   50 1   
    51   49   52 1   
    52   49   57 1   
    53   50   51 2   
    54   50   62 1   
    55   52   53 1   
    56   52   58 1   
    57   52   59 1   
    58   53   54 1   
    59   53   55 2   
    60   54   60 1   
    61   54   61 1   
    62   62   63 1   
    63   62   66 1   
    64   63   64 1   
    65   63   67 1   
    66   63   68 1   
    67   64   65 2   
    68   64   69 1   
    69   69   70 1   
    70   69   76 1   
    71   70   71 1   
    72   70   73 1   
    73   70   77 1   
    74   71   72 2   
    75   71   83 1   
    76   73   74 1   
    77   73   75 1   
    78   73   78 1   
    79   74   80 1   
    80   74   81 1   
    81   74   82 1   
    82   75   79 1   
    83   83   84 1   
    84   83   91 1   
    85   84   85 1   
    86   84   87 1   
    87   84   92 1   
    88   85   86 2   
    89   85  102 1   
    90   87   88 1   
    91   87   89 1   
    92   87   93 1   
    93   88   90 1   
    94   88   94 1   
    95   88   95 1   
    96   89   96 1   
    97   89   97 1   
    98   89   98 1   
    99   90   99 1   
   100   90  100 1   
   101   90  101 1   
   102  102  103 1   
   103  102  110 1   
   104  103  104 1   
   105  103  106 1   
   106  103  111 1   
   107  104  105 2   
   108  104  114 1   
   109  106  107 1   
   110  106  112 1   
   111  106  113 1   
   112  107  108 1   
   113  107  109 1   
   114  114  115 1   
   115  114  125 1   
   116  115  116 1   
   117  115  118 1   
   118  115  126 1   
   119  116  117 2   
   120  116  134 1   
   121  118  119 1   
   122  118  127 1   
   123  118  128 1   
   124  119  120 ar  
   125  119  121 ar  
   126  120  122 ar  
   127  120  129 1   
   128  121  123 ar  
   129  121  130 1   
   130  122  124 ar  
   131  122  131 1   
   132  123  124 ar  
   133  123  132 1   
   134  124  133 1   
   135  134  135 1   
   136  134  140 1   
   137  135  136 1   
   138  135  138 1   
   139  135  141 1   
   140  136  137 2   
   141  136  148 1   
   142  138  139 1   
   143  138  142 1   
   144  138  143 1   
   145  139  140 1   
   146  139  144 1   
   147  139  145 1   
   148  140  146 1   
   149  140  147 1   
   150  148  149 1   
   151  148  157 1   
   152  149  150 1   
   153  149  152 1   
   154  149  158 1   
   155  150  151 2   
   156  150  163 1   
   157  152  153 1   
   158  152  159 1   
   159  152  160 1   
   160  153  154 1   
   161  153  161 1   
   162  153  162 1   
   163  154  155 1   
   164  154  156 1   
   165  163  164 1   
   166  163  168 1   
   167  164  165 1   
   168  164  166 1   
   169  164  167 1   
   170  170  171 1   
   171  170  172 1   
   172  173  174 1   
   173  173  175 1   
@<TRIPOS>SUBSTRUCTURE
     1 MOL         1 TEMP              0 ****  ****    0 ROOT
