@<TRIPOS>MOLECULE
MOL
  175   173     1     0     0
SMALL
resp


@<TRIPOS>ATOM
      1 C1          0.7290    4.2990    5.3110 c3        1 MOL     -0.355054
      2 C2          0.0740    4.2420    3.9300 c         1 MOL      0.703551
      3 O1          0.7480    4.4570    2.9570 o         1 MOL     -0.532108
      4 H1          0.0210    4.7070    6.0320 hc        1 MOL      0.080912
      5 H2          1.0210    3.2940    5.6170 hc        1 MOL      0.080912
      6 H3          1.6110    4.9380    5.2690 hc        1 MOL      0.080912
      7 N1         -1.2030    3.8460    3.8390 n         1 MOL     -0.641196
      8 C3         -1.8980    3.6110    2.5990 c3        1 MOL      0.229797
      9 C4         -1.8590    4.7520    1.5380 c         1 MOL      0.502473
     10 O2         -1.8770    5.9370    1.8880 o         1 MOL     -0.574227
     11 C5         -3.3200    3.2470    2.9870 c3        1 MOL     -0.398092
     12 C6         -4.0720    2.4390    1.9950 c         1 MOL      0.919875
     13 O3         -5.1370    2.0430    2.3950 o         1 MOL     -0.739556
     14 O4         -3.6770    2.1460    0.9010 o         1 MOL     -0.739556
     15 H4         -1.6670    3.4850    4.6540 hn        1 MOL      0.311914
     16 H5         -1.3650    2.7450    2.2060 h1        1 MOL      0.066247
     17 H6         -3.8990    4.1310    3.2480 hc        1 MOL      0.081114
     18 H7         -3.2810    2.6280    3.8820 hc        1 MOL      0.081114
     19 N2         -1.8280    4.4100    0.2870 n         1 MOL     -0.472246
     20 C7         -2.0050    5.4090   -0.7600 c3        1 MOL      0.381557
     21 C8         -3.2350    5.1820   -1.7110 c         1 MOL      0.439344
     22 O5         -3.4070    6.0360   -2.5630 o         1 MOL     -0.561394
     23 C9         -0.6670    5.6360   -1.5490 c3        1 MOL     -0.279337
     24 H8         -1.6750    3.4600   -0.0180 hn        1 MOL      0.315279
     25 H9         -2.3160    6.3600   -0.3240 h1        1 MOL     -0.016245
     26 H10        -0.2880    4.7240   -2.0210 hc        1 MOL      0.063418
     27 H11        -0.6670    6.5240   -2.1740 hc        1 MOL      0.063418
     28 H12         0.0330    5.8860   -0.7480 hc        1 MOL      0.063418
     29 N3         -3.8940    3.9780   -1.7000 n         1 MOL     -0.453639
     30 C10        -4.7220    3.4640   -2.8050 c3        1 MOL      0.182327
     31 C11        -5.9570    2.6820   -2.4030 c         1 MOL      0.358212
     32 O6         -6.8980    2.6600   -3.2400 o         1 MOL     -0.562280
     33 C12        -3.8440    2.6780   -3.8060 c3        1 MOL      0.019346
     34 C13        -3.0620    1.5480   -3.1480 c         1 MOL      0.579707
     35 O7         -2.0660    1.0210   -3.7460 o         1 MOL     -0.654595
     36 O8         -3.4460    1.0780   -2.0370 o         1 MOL     -0.654595
     37 H13        -3.6650    3.4470   -0.8720 hn        1 MOL      0.161138
     38 H14        -5.0440    4.3240   -3.3910 h1        1 MOL      0.051664
     39 H15        -3.1560    3.3160   -4.3630 hc        1 MOL     -0.001432
     40 H16        -4.4900    2.3420   -4.6080 hc        1 MOL     -0.001432
     41 N4         -6.1170    2.1790   -1.1860 n         1 MOL     -0.135363
     42 C14        -7.2120    1.3730   -0.7350 c3        1 MOL     -0.333956
     43 C15        -7.2230   -0.0690   -1.1590 c         1 MOL      0.559880
     44 O9         -8.2400   -0.8030   -0.9670 o         1 MOL     -0.612252
     45 H17        -5.3290    2.1960   -0.5450 hn        1 MOL      0.180582
     46 H18        -8.0910    1.8560   -1.1580 h1        1 MOL      0.144966
     47 H19        -7.2490    1.4430    0.3570 h1        1 MOL      0.144966
     48 N5         -6.1180   -0.6030   -1.7690 n         1 MOL     -0.161955
     49 C16        -6.0130   -1.9230   -2.3360 c3        1 MOL     -0.179025
     50 C17        -6.0730   -3.1820   -1.3680 c         1 MOL      0.443269
     51 O10        -5.8620   -4.3370   -1.8440 o         1 MOL     -0.528447
     52 C18        -4.7750   -1.9150   -3.2570 c3        1 MOL     -0.098852
     53 C19        -3.5420   -2.4640   -2.5270 c         1 MOL      0.516065
     54 N6         -2.6570   -3.2160   -3.2100 n         1 MOL     -0.593658
     55 O11        -3.2780   -2.2070   -1.3520 o         1 MOL     -0.571194
     56 H20        -5.2940   -0.0340   -1.8740 hn        1 MOL      0.150641
     57 H21        -6.9140   -2.0550   -2.9220 h1        1 MOL      0.133689
     58 H22        -4.6230   -0.9720   -3.7720 hc        1 MOL      0.072162
     59 H23        -4.9120   -2.5600   -4.1260 hc        1 MOL      0.072162
     60 H24        -2.8350   -3.4410   -4.1790 hn        1 MOL      0.322818
     61 H25        -1.7640   -3.3060   -2.7550 hn        1 MOL      0.322818
     62 N7         -6.2650   -3.0060   -0.0260 n         1 MOL     -0.192838
     63 C20        -6.3990   -4.1100    1.0040 c3        1 MOL     -0.350791
     64 C21        -5.1010   -4.4860    1.7690 c         1 MOL      0.659445
     65 O12        -5.1630   -4.9840    2.8670 o         1 MOL     -0.600456
     66 H26        -6.2970   -2.0360    0.2570 hn        1 MOL      0.252986
     67 H27        -6.7370   -5.0310    0.5390 h1        1 MOL      0.145036
     68 H28        -7.0900   -3.7400    1.7640 h1        1 MOL      0.145036
     69 N8         -3.9790   -4.1540    1.1820 n         1 MOL     -0.283359
     70 C22        -2.6600   -4.5060    1.7350 c3        1 MOL     -0.319195
     71 C23        -1.7310   -3.4020    1.7410 c         1 MOL      0.862363
     72 O13        -1.9650   -2.4040    1.0670 o         1 MOL     -0.730832
     73 C24        -2.0600   -5.5120    0.8350 c3        1 MOL      0.542763
     74 C25        -2.6240   -6.9150    1.0030 c3        1 MOL     -0.404544
     75 O14        -2.2090   -5.2060   -0.5030 oh        1 MOL     -0.605602
     76 H29        -4.0400   -3.6760    0.2980 hn        1 MOL      0.230038
     77 H30        -2.8290   -4.9350    2.7230 h1        1 MOL      0.134766
     78 H31        -0.9800   -5.6190    0.9540 h1        1 MOL     -0.020780
     79 H32        -2.2400   -4.2580   -0.6070 ho        1 MOL      0.376081
     80 H33        -2.0550   -7.6380    0.4170 hc        1 MOL      0.092344
     81 H34        -2.6280   -7.3010    2.0260 hc        1 MOL      0.092344
     82 H35        -3.6830   -6.9310    0.7410 hc        1 MOL      0.092344
     83 N9         -0.5790   -3.5920    2.4060 n         1 MOL     -0.728172
     84 C26         0.5890   -2.7930    2.3220 c3        1 MOL      0.155401
     85 C27         1.3990   -3.1720    1.0920 c         1 MOL      0.683449
     86 O15         1.5830   -4.3240    0.7380 o         1 MOL     -0.584794
     87 C28         1.3890   -2.7140    3.6530 c3        1 MOL      0.005531
     88 C29         0.7520   -1.4990    4.4750 c3        1 MOL      0.093345
     89 C30         2.8760   -2.3840    3.3430 c3        1 MOL     -0.253279
     90 C31         1.3510   -1.3930    5.9100 c3        1 MOL     -0.194030
     91 H36        -0.4380   -4.5320    2.7480 hn        1 MOL      0.290488
     92 H37         0.3730   -1.7610    2.0790 h1        1 MOL      0.041251
     93 H38         1.3580   -3.6320    4.2400 hc        1 MOL      0.039124
     94 H39        -0.3260   -1.5770    4.5520 hc        1 MOL      0.000998
     95 H40         0.9720   -0.5720    3.9490 hc        1 MOL      0.000998
     96 H41         2.9590   -1.3710    2.9630 hc        1 MOL      0.057817
     97 H42         3.4170   -2.3780    4.2870 hc        1 MOL      0.057817
     98 H43         3.3050   -3.0780    2.6120 hc        1 MOL      0.057817
     99 H44         1.1590   -2.3550    6.3860 hc        1 MOL      0.039481
    100 H45         2.4200   -1.2220    5.7900 hc        1 MOL      0.039481
    101 H46         0.8030   -0.7050    6.5640 hc        1 MOL      0.039481
    102 N10         1.8630   -2.1180    0.3500 n         1 MOL     -0.550696
    103 C32         2.6220   -2.1460   -0.8960 c3        1 MOL      0.103825
    104 C33         4.0470   -1.7390   -0.5880 c         1 MOL      0.639779
    105 O16         4.2960   -1.0710    0.4190 o         1 MOL     -0.359694
    106 C34         1.9000   -1.3460   -1.9570 c3        1 MOL     -0.577080
    107 C35         0.3470   -1.6550   -2.1890 c         1 MOL      0.992928
    108 O17        -0.4930   -0.8630   -1.8120 o         1 MOL     -0.723242
    109 O18         0.0580   -2.6130   -2.8980 o         1 MOL     -0.723242
    110 H47         1.5910   -1.1890    0.6340 hn        1 MOL      0.228437
    111 H48         2.6590   -3.1810   -1.2260 h1        1 MOL      0.084369
    112 H49         2.2160   -1.5360   -2.9860 hc        1 MOL      0.147938
    113 H50         2.0690   -0.2960   -1.7310 hc        1 MOL      0.147938
    114 N11         5.0340   -2.0090   -1.5050 n         1 MOL     -0.932743
    115 C36         6.4510   -1.7050   -1.2310 c3        1 MOL      0.660179
    116 C37         6.6030   -0.1700   -1.1710 c         1 MOL      0.151225
    117 O19         7.2820    0.1870   -0.1700 o         1 MOL     -0.487022
    118 C38         7.4160   -2.4220   -2.1960 c3        1 MOL     -0.235103
    119 C39         8.7950   -1.9870   -2.0220 ca        1 MOL      0.234676
    120 C40         9.4110   -2.1310   -0.7380 ca        1 MOL     -0.301487
    121 C41         9.4650   -1.5390   -3.1290 ca        1 MOL     -0.301487
    122 C42        10.7100   -1.6850   -0.6120 ca        1 MOL      0.053241
    123 C43        10.7620   -1.0250   -2.9460 ca        1 MOL      0.053241
    124 C44        11.4580   -1.2140   -1.7000 ca        1 MOL     -0.315379
    125 H51         4.7640   -2.5050   -2.3400 hn        1 MOL      0.378266
    126 H52         6.6420   -2.1190   -0.2450 h1        1 MOL     -0.004002
    127 H53         7.1020   -2.1560   -3.2100 hc        1 MOL      0.051680
    128 H54         7.3610   -3.5090   -2.1950 hc        1 MOL      0.051680
    129 H55         8.8640   -2.5940    0.0700 ha        1 MOL      0.143194
    130 H56         8.9730   -1.5400   -4.0860 ha        1 MOL      0.143194
    131 H57        11.2390   -1.8520    0.3060 ha        1 MOL      0.072770
    132 H58        11.2490   -0.6300   -3.8170 ha        1 MOL      0.072770
    133 H59        12.4720   -0.9200   -1.4910 ha        1 MOL      0.154479
    134 N12         5.9840    0.6870   -2.0060 n         1 MOL     -0.002948
    135 C45         6.0460    2.1310   -1.8370 c3        1 MOL      0.037048
    136 C46         5.3560    2.7150   -0.5200 c         1 MOL      0.133182
    137 O20         5.6280    3.8890   -0.2020 o         1 MOL     -0.483224
    138 C47         5.3340    2.7340   -3.0080 c3        1 MOL     -0.246856
    139 C48         5.4370    1.6540   -4.1040 c3        1 MOL     -0.041389
    140 C49         5.2730    0.4400   -3.2180 c3        1 MOL     -0.025182
    141 H60         7.0700    2.4870   -1.8160 h1        1 MOL      0.099323
    142 H61         4.2500    2.7430   -2.9530 hc        1 MOL      0.125727
    143 H62         5.7120    3.6660   -3.4130 hc        1 MOL      0.125727
    144 H63         4.6470    1.7420   -4.8570 hc        1 MOL      0.033541
    145 H64         6.4530    1.6210   -4.4860 hc        1 MOL      0.033541
    146 H65         4.2280    0.3360   -2.9630 h1        1 MOL      0.034054
    147 H66         5.7290   -0.4080   -3.7460 h1        1 MOL      0.034054
    148 N13         4.6890    1.9000    0.2700 n         1 MOL      0.127339
    149 C50         4.1130    2.2900    1.5380 c3        1 MOL     -0.071003
    150 C51         4.9170    1.7190    2.6900 c         1 MOL      0.432139
    151 O21         5.1090    2.3950    3.7180 o         1 MOL     -0.564301
    152 C52         2.6770    1.6950    1.5670 c3        1 MOL     -0.071154
    153 C53         1.7500    2.1850    0.4020 c3        1 MOL      0.017046
    154 C54         0.3550    1.5480    0.4000 c         1 MOL      0.411862
    155 O22         0.1460    0.4940    0.9890 o         1 MOL     -0.600783
    156 O23        -0.5780    2.0300   -0.3380 o         1 MOL     -0.600783
    157 H67         4.4150    0.9950   -0.0870 hn        1 MOL      0.107637
    158 H68         4.0740    3.3810    1.5790 h1        1 MOL      0.104274
    159 H69         2.1170    2.0270    2.4340 hc        1 MOL      0.041144
    160 H70         2.7210    0.6090    1.5460 hc        1 MOL      0.041144
    161 H71         2.1590    2.0610   -0.6020 hc        1 MOL      0.031402
    162 H72         1.5970    3.2570    0.5470 hc        1 MOL      0.031402
    163 N14         5.4310    0.5230    2.5680 n         1 MOL     -0.056157
    164 C55         6.3970   -0.0590    3.5160 c3        1 MOL     -0.198266
    165 H73         6.0620    0.1280    4.5360 h1        1 MOL      0.081863
    166 H74         6.4690   -1.1340    3.3500 h1        1 MOL      0.081863
    167 H75         7.3750    0.3980    3.3670 h1        1 MOL      0.081863
    168 H76         5.1900    0.0050    1.7320 hn        1 MOL      0.034390
    169 Ca1        -2.2280   -0.0100   -0.0510 Ca        1 MOL      1.702666
    170 O24        -4.5000   -0.4280    1.2240 oh        1 MOL     -0.780525
    171 H77        -5.1260   -0.9100    1.7580 ho        1 MOL      0.373726
    172 H78        -4.4540    0.4310    1.6450 ho        1 MOL      0.373726
    173 O25        -1.7290    0.4290    2.7480 oh        1 MOL     -0.780525
    174 H79        -0.7960    0.5320    2.5500 ho        1 MOL      0.373726
    175 H80        -1.7680    0.4520    3.7040 ho        1 MOL      0.373726
@<TRIPOS>BOND
     1    1    2 1   
     2    1    4 1   
     3    1    5 1   
     4    1    6 1   
     5    2    3 2   
     6    2    7 1   
     7    7    8 1   
     8    7   15 1   
     9    8    9 1   
    10    8   11 1   
    11    8   16 1   
    12    9   10 2   
    13    9   19 1   
    14   11   12 1   
    15   11   17 1   
    16   11   18 1   
    17   12   13 1   
    18   12   14 1   
    19   19   20 1   
    20   19   24 1   
    21   20   21 1   
    22   20   23 1   
    23   20   25 1   
    24   21   22 2   
    25   21   29 1   
    26   23   26 1   
    27   23   27 1   
    28   23   28 1   
    29   29   30 1   
    30   29   37 1   
    31   30   31 1   
    32   30   33 1   
    33   30   38 1   
    34   31   32 2   
    35   31   41 1   
    36   33   34 1   
    37   33   39 1   
    38   33   40 1   
    39   34   35 1   
    40   34   36 1   
    41   41   42 1   
    42   41   45 1   
    43   42   43 1   
    44   42   46 1   
    45   42   47 1   
    46   43   44 2   
    47   43   48 1   
    48   48   49 1   
    49   48   56 1   
    50   49   50 1   
    51   49   52 1   
    52   49   57 1   
    53   50   51 2   
    54   50   62 1   
    55   52   53 1   
    56   52   58 1   
    57   52   59 1   
    58   53   54 1   
    59   53   55 2   
    60   54   60 1   
    61   54   61 1   
    62   62   63 1   
    63   62   66 1   
    64   63   64 1   
    65   63   67 1   
    66   63   68 1   
    67   64   65 2   
    68   64   69 1   
    69   69   70 1   
    70   69   76 1   
    71   70   71 1   
    72   70   73 1   
    73   70   77 1   
    74   71   72 2   
    75   71   83 1   
    76   73   74 1   
    77   73   75 1   
    78   73   78 1   
    79   74   80 1   
    80   74   81 1   
    81   74   82 1   
    82   75   79 1   
    83   83   84 1   
    84   83   91 1   
    85   84   85 1   
    86   84   87 1   
    87   84   92 1   
    88   85   86 2   
    89   85  102 1   
    90   87   88 1   
    91   87   89 1   
    92   87   93 1   
    93   88   90 1   
    94   88   94 1   
    95   88   95 1   
    96   89   96 1   
    97   89   97 1   
    98   89   98 1   
    99   90   99 1   
   100   90  100 1   
   101   90  101 1   
   102  102  103 1   
   103  102  110 1   
   104  103  104 1   
   105  103  106 1   
   106  103  111 1   
   107  104  105 2   
   108  104  114 1   
   109  106  107 1   
   110  106  112 1   
   111  106  113 1   
   112  107  108 1   
   113  107  109 1   
   114  114  115 1   
   115  114  125 1   
   116  115  116 1   
   117  115  118 1   
   118  115  126 1   
   119  116  117 2   
   120  116  134 1   
   121  118  119 1   
   122  118  127 1   
   123  118  128 1   
   124  119  120 ar  
   125  119  121 ar  
   126  120  122 ar  
   127  120  129 1   
   128  121  123 ar  
   129  121  130 1   
   130  122  124 ar  
   131  122  131 1   
   132  123  124 ar  
   133  123  132 1   
   134  124  133 1   
   135  134  135 1   
   136  134  140 1   
   137  135  136 1   
   138  135  138 1   
   139  135  141 1   
   140  136  137 2   
   141  136  148 1   
   142  138  139 1   
   143  138  142 1   
   144  138  143 1   
   145  139  140 1   
   146  139  144 1   
   147  139  145 1   
   148  140  146 1   
   149  140  147 1   
   150  148  149 1   
   151  148  157 1   
   152  149  150 1   
   153  149  152 1   
   154  149  158 1   
   155  150  151 2   
   156  150  163 1   
   157  152  153 1   
   158  152  159 1   
   159  152  160 1   
   160  153  154 1   
   161  153  161 1   
   162  153  162 1   
   163  154  155 1   
   164  154  156 1   
   165  163  164 1   
   166  163  168 1   
   167  164  165 1   
   168  164  166 1   
   169  164  167 1   
   170  170  171 1   
   171  170  172 1   
   172  173  174 1   
   173  173  175 1   
@<TRIPOS>SUBSTRUCTURE
     1 MOL         1 TEMP              0 ****  ****    0 ROOT
