@<TRIPOS>MOLECULE
MOL
  175   173     1     0     0
SMALL
resp


@<TRIPOS>ATOM
      1 C1          0.6030    3.5670    5.4560 c3        1 MOL     -0.424736
      2 C2         -0.0970    3.6860    4.0710 c         1 MOL      0.707622
      3 O1          0.5890    3.8400    3.0810 o         1 MOL     -0.540852
      4 H1          1.2390    4.4380    5.6160 hc        1 MOL      0.106094
      5 H2         -0.1500    3.5190    6.2420 hc        1 MOL      0.106094
      6 H3          1.2120    2.6640    5.4790 hc        1 MOL      0.106094
      7 N1         -1.4370    3.6080    3.9860 n         1 MOL     -0.638208
      8 C3         -2.1860    3.4290    2.7170 c3        1 MOL      0.134064
      9 C4         -2.2010    4.6440    1.8010 c         1 MOL      0.623622
     10 O2         -2.3550    5.8160    2.2820 o         1 MOL     -0.598910
     11 C5         -3.6350    3.0140    3.1010 c3        1 MOL     -0.265250
     12 C6         -4.4020    2.7930    1.7580 c         1 MOL      0.549561
     13 O3         -3.9370    2.0120    0.8570 o         1 MOL     -0.604856
     14 O4         -5.3040    3.6660    1.5030 o         1 MOL     -0.604856
     15 H4         -1.9760    3.6190    4.8360 hn        1 MOL      0.329307
     16 H5         -1.6490    2.6630    2.1600 h1        1 MOL      0.074597
     17 H6         -4.1030    3.7640    3.7340 hc        1 MOL      0.059585
     18 H7         -3.5970    2.0780    3.6530 hc        1 MOL      0.059585
     19 N2         -2.0920    4.4370    0.4910 n         1 MOL     -0.502563
     20 C7         -2.3030    5.4030   -0.6230 c3        1 MOL      0.326588
     21 C8         -3.4390    5.0810   -1.6150 c         1 MOL      0.534271
     22 O5         -3.8090    6.0020   -2.3930 o         1 MOL     -0.598972
     23 C9         -0.9370    5.6730   -1.3320 c3        1 MOL     -0.328157
     24 H8         -1.8410    3.5080    0.1920 hn        1 MOL      0.268327
     25 H9         -2.7340    6.3510   -0.2840 h1        1 MOL      0.017753
     26 H10        -0.6850    4.7660   -1.8860 hc        1 MOL      0.073375
     27 H11        -1.1990    6.4820   -2.0100 hc        1 MOL      0.073375
     28 H12        -0.2010    5.9070   -0.5580 hc        1 MOL      0.073375
     29 N3         -4.1500    3.9340   -1.4830 n         1 MOL     -0.358535
     30 C10        -5.1120    3.3350   -2.4760 c3        1 MOL      0.049511
     31 C11        -6.3670    2.6010   -2.0360 c         1 MOL      0.392350
     32 O6         -7.3050    2.6440   -2.8100 o         1 MOL     -0.555225
     33 C12        -4.3080    2.4220   -3.4500 c3        1 MOL     -0.142515
     34 C13        -3.4150    1.4240   -2.7610 c         1 MOL      0.575568
     35 O7         -2.2560    1.2640   -3.1270 o         1 MOL     -0.634349
     36 O8         -3.8400    0.7760   -1.8140 o         1 MOL     -0.634349
     37 H13        -3.8360    3.3630   -0.7180 hn        1 MOL      0.187741
     38 H14        -5.4150    4.1830   -3.0830 h1        1 MOL      0.088280
     39 H15        -3.6920    3.0300   -4.1120 hc        1 MOL      0.044983
     40 H16        -5.0620    2.0210   -4.1210 hc        1 MOL      0.044983
     41 N4         -6.4250    1.8480   -0.9280 n         1 MOL     -0.068515
     42 C14        -7.5380    0.9550   -0.5080 c3        1 MOL     -0.243043
     43 C15        -7.4190   -0.4930   -1.1280 c         1 MOL      0.599030
     44 O9         -8.4890   -1.1050   -1.2570 o         1 MOL     -0.627180
     45 H17        -5.5900    1.8840   -0.3490 hn        1 MOL      0.125463
     46 H18        -8.4890    1.3400   -0.8910 h1        1 MOL      0.098992
     47 H19        -7.5080    0.8390    0.5770 h1        1 MOL      0.098992
     48 N5         -6.2860   -0.9760   -1.6170 n         1 MOL     -0.248013
     49 C16        -6.0240   -2.2490   -2.2510 c3        1 MOL     -0.084356
     50 C17        -5.8210   -3.3240   -1.1910 c         1 MOL      0.410793
     51 O10        -5.4410   -4.4910   -1.4850 o         1 MOL     -0.502419
     52 C18        -4.8700   -2.0300   -3.3180 c3        1 MOL      0.025109
     53 C19        -3.4020   -2.1520   -2.8470 c         1 MOL      0.300701
     54 N6         -2.5240   -1.9040   -3.7300 n         1 MOL     -0.458631
     55 O11        -3.2010   -2.2190   -1.6120 o         1 MOL     -0.341170
     56 H20        -5.5120   -0.3360   -1.5760 hn        1 MOL      0.186052
     57 H21        -6.9220   -2.5540   -2.7910 h1        1 MOL      0.113478
     58 H22        -4.9920   -1.0410   -3.7740 hc        1 MOL      0.017056
     59 H23        -5.0280   -2.7200   -4.1500 hc        1 MOL      0.017056
     60 H24        -2.9110   -1.8870   -4.6570 hn        1 MOL      0.302669
     61 H25        -1.5780   -1.7610   -3.3990 hn        1 MOL      0.302669
     62 N7         -6.1380   -3.0640    0.1090 n         1 MOL     -0.163118
     63 C20        -6.2260   -4.0040    1.2650 c3        1 MOL     -0.449406
     64 C21        -4.8900   -4.5910    1.7660 c         1 MOL      0.618031
     65 O12        -4.8210   -5.3780    2.6900 o         1 MOL     -0.592572
     66 H26        -6.4920   -2.1420    0.3270 hn        1 MOL      0.210231
     67 H27        -6.7750   -4.8850    0.9190 h1        1 MOL      0.171914
     68 H28        -6.6860   -3.5110    2.1310 h1        1 MOL      0.171914
     69 N8         -3.8220   -4.1420    1.0970 n         1 MOL     -0.077895
     70 C22        -2.4190   -4.5410    1.2920 c3        1 MOL     -0.344105
     71 C23        -1.4970   -3.3530    1.5780 c         1 MOL      0.609860
     72 O13        -1.5710   -2.3040    0.9150 o         1 MOL     -0.616028
     73 C24        -1.8240   -5.3290    0.1190 c3        1 MOL      0.715804
     74 C25        -2.5020   -6.6950   -0.0580 c3        1 MOL     -0.416109
     75 O14        -1.7830   -4.7110   -1.1400 oh        1 MOL     -0.653980
     76 H29        -3.9170   -3.5290    0.2980 hn        1 MOL     -0.022713
     77 H30        -2.5020   -5.1790    2.1660 h1        1 MOL      0.098869
     78 H31        -0.7640   -5.4750    0.3270 h1        1 MOL     -0.081829
     79 H32        -1.8270   -3.7790   -0.9260 ho        1 MOL      0.407298
     80 H33        -2.2090   -7.3260    0.7800 hc        1 MOL      0.087082
     81 H34        -3.5790   -6.5740   -0.1630 hc        1 MOL      0.087082
     82 H35        -2.0780   -7.1720   -0.9490 hc        1 MOL      0.087082
     83 N9         -0.4380   -3.7000    2.2540 n         1 MOL     -0.570570
     84 C26         0.8350   -2.8500    2.1750 c3        1 MOL     -0.051685
     85 C27         1.5360   -3.1060    0.8180 c         1 MOL      0.368319
     86 O15         1.6230   -4.2590    0.4100 o         1 MOL     -0.536353
     87 C28         1.7410   -3.1800    3.3930 c3        1 MOL      0.359981
     88 C29         0.9220   -2.7730    4.7080 c3        1 MOL     -0.086812
     89 C30         3.0090   -2.4180    3.3350 c3        1 MOL     -0.386949
     90 C31         1.8240   -2.7250    6.0110 c3        1 MOL     -0.131484
     91 H36        -0.4560   -4.5880    2.7390 hn        1 MOL      0.321400
     92 H37         0.5770   -1.7960    2.1120 h1        1 MOL      0.118771
     93 H38         1.9240   -4.2520    3.3630 hc        1 MOL     -0.042953
     94 H39         0.1090   -3.4860    4.8550 hc        1 MOL      0.015702
     95 H40         0.6160   -1.7600    4.4490 hc        1 MOL      0.015702
     96 H41         3.5920   -2.6080    2.4350 hc        1 MOL      0.072898
     97 H42         2.7340   -1.4050    3.6000 hc        1 MOL      0.072898
     98 H43         3.6270   -2.9430    4.0700 hc        1 MOL      0.072898
     99 H44         2.0890   -3.7510    6.2570 hc        1 MOL      0.035064
    100 H45         2.6500   -2.0330    5.9250 hc        1 MOL      0.035064
    101 H46         1.2620   -2.3010    6.8480 hc        1 MOL      0.035064
    102 N10         1.9150   -2.0530    0.1430 n         1 MOL     -0.106841
    103 C32         2.6700   -2.0120   -1.0710 c3        1 MOL      0.021807
    104 C33         4.1550   -1.5180   -0.7430 c         1 MOL      0.317132
    105 O16         4.4230   -0.9170    0.2790 o         1 MOL     -0.268049
    106 C34         2.0340   -1.0990   -2.1090 c3        1 MOL     -0.126108
    107 C35         0.5750   -1.2990   -2.5020 c         1 MOL      0.670906
    108 O17        -0.4000   -1.0870   -1.7640 o         1 MOL     -0.669985
    109 O18         0.3570   -1.5410   -3.7050 o         1 MOL     -0.669985
    110 H47         1.6620   -1.1360    0.5020 hn        1 MOL      0.252604
    111 H48         2.7080   -3.0470   -1.4270 h1        1 MOL      0.056318
    112 H49         2.6720   -1.0710   -2.9890 hc        1 MOL      0.021876
    113 H50         2.1060   -0.1530   -1.5620 hc        1 MOL      0.021876
    114 N11         5.0790   -1.7180   -1.6560 n         1 MOL     -0.481709
    115 C36         6.5370   -1.3850   -1.3830 c3        1 MOL      0.184400
    116 C37         6.7950    0.0710   -1.0500 c         1 MOL      0.460128
    117 O19         7.4530    0.3170   -0.0520 o         1 MOL     -0.505324
    118 C38         7.4220   -1.7910   -2.5670 c3        1 MOL     -0.268978
    119 C39         8.9040   -1.4780   -2.3690 ca        1 MOL      0.156569
    120 C40         9.7130   -2.3690   -1.6210 ca        1 MOL     -0.256849
    121 C41         9.5110   -0.3260   -2.9710 ca        1 MOL     -0.256849
    122 C42        11.0420   -2.0010   -1.3590 ca        1 MOL     -0.028314
    123 C43        10.8350   -0.0090   -2.7080 ca        1 MOL     -0.028314
    124 C44        11.5950   -0.8170   -1.8740 ca        1 MOL     -0.152539
    125 H51         4.9000   -1.8840   -2.6330 hn        1 MOL      0.294775
    126 H52         6.7750   -1.9470   -0.4790 h1        1 MOL      0.079097
    127 H53         7.1400   -1.3490   -3.5190 hc        1 MOL      0.087517
    128 H54         7.3120   -2.8660   -2.6940 hc        1 MOL      0.087517
    129 H55         9.3550   -3.2580   -1.1350 ha        1 MOL      0.149763
    130 H56         8.9520    0.2880   -3.6660 ha        1 MOL      0.149763
    131 H57        11.6290   -2.7810   -0.8940 ha        1 MOL      0.089133
    132 H58        11.3100    0.8070   -3.2350 ha        1 MOL      0.089133
    133 H59        12.6430   -0.5720   -1.7550 ha        1 MOL      0.101725
    134 N12         6.1730    1.0640   -1.7700 n         1 MOL     -0.154464
    135 C45         6.2080    2.5100   -1.3230 c3        1 MOL      0.043736
    136 C46         5.6760    2.7850    0.0530 c         1 MOL      0.312130
    137 O20         6.1350    3.6680    0.7600 o         1 MOL     -0.505608
    138 C47         5.4860    3.2680   -2.3620 c3        1 MOL     -0.028114
    139 C48         5.6620    2.3820   -3.6230 c3        1 MOL     -0.111001
    140 C49         5.5420    0.9480   -3.0520 c3        1 MOL     -0.064108
    141 H60         7.2530    2.8040   -1.3470 h1        1 MOL      0.055730
    142 H61         4.4150    3.3230   -2.1700 hc        1 MOL      0.045469
    143 H62         5.8220    4.3140   -2.4140 hc        1 MOL      0.045469
    144 H63         4.9430    2.4750   -4.4460 hc        1 MOL      0.048089
    145 H64         6.6420    2.5360   -4.0870 hc        1 MOL      0.048089
    146 H65         4.4880    0.6800   -2.9820 h1        1 MOL      0.065857
    147 H66         6.0860    0.3120   -3.7490 h1        1 MOL      0.065857
    148 N13         4.6860    1.9910    0.5060 n         1 MOL     -0.077392
    149 C50         4.0140    2.0960    1.7940 c3        1 MOL     -0.059483
    150 C51         4.7120    1.3510    2.9230 c         1 MOL      0.417915
    151 O21         4.6640    1.7500    4.0850 o         1 MOL     -0.571052
    152 C52         2.5920    1.4700    1.6530 c3        1 MOL     -0.085379
    153 C53         1.7550    2.1410    0.5300 c3        1 MOL     -0.502329
    154 C54         0.3790    1.4760    0.5180 c         1 MOL      0.699630
    155 O22        -0.5790    2.0360   -0.0420 o         1 MOL     -0.673447
    156 O23         0.2420    0.3020    0.8780 o         1 MOL     -0.673447
    157 H67         4.5180    1.2120   -0.1200 hn        1 MOL      0.162862
    158 H68         3.8710    3.1160    2.1420 h1        1 MOL      0.133013
    159 H69         1.9910    1.3660    2.5540 hc        1 MOL      0.080080
    160 H70         2.6430    0.4300    1.3270 hc        1 MOL      0.080080
    161 H71         2.2340    1.9590   -0.4250 hc        1 MOL      0.163940
    162 H72         1.6550    3.1920    0.8030 hc        1 MOL      0.163940
    163 N14         5.4640    0.3240    2.6020 n         1 MOL     -0.044051
    164 C55         6.4090   -0.3880    3.4920 c3        1 MOL     -0.169445
    165 H73         6.6020    0.2180    4.3770 h1        1 MOL      0.068814
    166 H74         5.9760   -1.3420    3.7940 h1        1 MOL      0.068814
    167 H75         7.3450   -0.5650    2.9640 h1        1 MOL      0.068814
    168 H76         5.3390   -0.0260    1.6620 hn        1 MOL      0.042370
    169 Ca1        -2.1630   -0.0530   -0.1870 Ca        1 MOL      1.649308
    170 O24        -4.7130   -0.5920    1.0740 oh        1 MOL     -0.795735
    171 H77        -4.7420    0.3730    1.0340 ho        1 MOL      0.386278
    172 H78        -5.3650   -0.8250    1.7420 ho        1 MOL      0.386278
    173 O25        -2.0600   -0.0060    2.4710 oh        1 MOL     -0.795735
    174 H79        -2.3230    0.1430    3.3680 ho        1 MOL      0.386278
    175 H80        -1.1030   -0.0510    2.4950 ho        1 MOL      0.386278
@<TRIPOS>BOND
     1    1    2 1   
     2    1    4 1   
     3    1    5 1   
     4    1    6 1   
     5    2    3 2   
     6    2    7 1   
     7    7    8 1   
     8    7   15 1   
     9    8    9 1   
    10    8   11 1   
    11    8   16 1   
    12    9   10 2   
    13    9   19 1   
    14   11   12 1   
    15   11   17 1   
    16   11   18 1   
    17   12   13 1   
    18   12   14 1   
    19   19   20 1   
    20   19   24 1   
    21   20   21 1   
    22   20   23 1   
    23   20   25 1   
    24   21   22 2   
    25   21   29 1   
    26   23   26 1   
    27   23   27 1   
    28   23   28 1   
    29   29   30 1   
    30   29   37 1   
    31   30   31 1   
    32   30   33 1   
    33   30   38 1   
    34   31   32 2   
    35   31   41 1   
    36   33   34 1   
    37   33   39 1   
    38   33   40 1   
    39   34   35 1   
    40   34   36 1   
    41   41   42 1   
    42   41   45 1   
    43   42   43 1   
    44   42   46 1   
    45   42   47 1   
    46   43   44 2   
    47   43   48 1   
    48   48   49 1   
    49   48   56 1   
    50   49   50 1   
    51   49   52 1   
    52   49   57 1   
    53   50   51 2   
    54   50   62 1   
    55   52   53 1   
    56   52   58 1   
    57   52   59 1   
    58   53   54 1   
    59   53   55 2   
    60   54   60 1   
    61   54   61 1   
    62   62   63 1   
    63   62   66 1   
    64   63   64 1   
    65   63   67 1   
    66   63   68 1   
    67   64   65 2   
    68   64   69 1   
    69   69   70 1   
    70   69   76 1   
    71   70   71 1   
    72   70   73 1   
    73   70   77 1   
    74   71   72 2   
    75   71   83 1   
    76   73   74 1   
    77   73   75 1   
    78   73   78 1   
    79   74   80 1   
    80   74   81 1   
    81   74   82 1   
    82   75   79 1   
    83   83   84 1   
    84   83   91 1   
    85   84   85 1   
    86   84   87 1   
    87   84   92 1   
    88   85   86 2   
    89   85  102 1   
    90   87   88 1   
    91   87   89 1   
    92   87   93 1   
    93   88   90 1   
    94   88   94 1   
    95   88   95 1   
    96   89   96 1   
    97   89   97 1   
    98   89   98 1   
    99   90   99 1   
   100   90  100 1   
   101   90  101 1   
   102  102  103 1   
   103  102  110 1   
   104  103  104 1   
   105  103  106 1   
   106  103  111 1   
   107  104  105 2   
   108  104  114 1   
   109  106  107 1   
   110  106  112 1   
   111  106  113 1   
   112  107  108 1   
   113  107  109 1   
   114  114  115 1   
   115  114  125 1   
   116  115  116 1   
   117  115  118 1   
   118  115  126 1   
   119  116  117 2   
   120  116  134 1   
   121  118  119 1   
   122  118  127 1   
   123  118  128 1   
   124  119  120 ar  
   125  119  121 ar  
   126  120  122 ar  
   127  120  129 1   
   128  121  123 ar  
   129  121  130 1   
   130  122  124 ar  
   131  122  131 1   
   132  123  124 ar  
   133  123  132 1   
   134  124  133 1   
   135  134  135 1   
   136  134  140 1   
   137  135  136 1   
   138  135  138 1   
   139  135  141 1   
   140  136  137 2   
   141  136  148 1   
   142  138  139 1   
   143  138  142 1   
   144  138  143 1   
   145  139  140 1   
   146  139  144 1   
   147  139  145 1   
   148  140  146 1   
   149  140  147 1   
   150  148  149 1   
   151  148  157 1   
   152  149  150 1   
   153  149  152 1   
   154  149  158 1   
   155  150  151 2   
   156  150  163 1   
   157  152  153 1   
   158  152  159 1   
   159  152  160 1   
   160  153  154 1   
   161  153  161 1   
   162  153  162 1   
   163  154  155 1   
   164  154  156 1   
   165  163  164 1   
   166  163  168 1   
   167  164  165 1   
   168  164  166 1   
   169  164  167 1   
   170  170  171 1   
   171  170  172 1   
   172  173  174 1   
   173  173  175 1   
@<TRIPOS>SUBSTRUCTURE
     1 MOL         1 TEMP              0 ****  ****    0 ROOT
