@<TRIPOS>MOLECULE
MOL
  189   185     1     0     0
SMALL
resp


@<TRIPOS>ATOM
      1 C1          0.5480   -4.7790    5.8020 c3        1 MOL     -0.396232
      2 C2          0.9840   -4.1690    4.4830 c         1 MOL      0.733159
      3 O1          0.9570   -2.9370    4.3440 o         1 MOL     -0.602077
      4 H1          0.4120   -5.8530    5.6780 hc        1 MOL      0.097850
      5 H2          1.3110   -4.5950    6.5590 hc        1 MOL      0.097850
      6 H3         -0.3940   -4.3290    6.1180 hc        1 MOL      0.097850
      7 N1          1.4700   -4.9620    3.5300 n         1 MOL     -0.577070
      8 C3          1.9710   -4.3990    2.2680 c3        1 MOL      0.155582
      9 C4          1.6060   -5.3150    1.0430 c         1 MOL      0.412201
     10 O2          1.8240   -6.5290    1.1460 o         1 MOL     -0.542302
     11 C5          3.5060   -4.3870    2.3480 c3        1 MOL     -0.284765
     12 C6          4.2170   -3.5710    1.2100 c         1 MOL      0.770446
     13 O3          5.4950   -3.6080    1.3150 o         1 MOL     -0.692700
     14 O4          3.5750   -2.7970    0.4320 o         1 MOL     -0.692700
     15 H4          1.5710   -5.9390    3.7430 hn        1 MOL      0.315073
     16 H5          1.6340   -3.3660    2.2590 h1        1 MOL      0.111146
     17 H6          3.8320   -5.3970    2.1130 hc        1 MOL      0.069517
     18 H7          3.8660   -4.0570    3.3160 hc        1 MOL      0.069517
     19 N2          1.1840   -4.6000   -0.0290 n         1 MOL     -0.035212
     20 C7          0.7590   -5.3170   -1.2890 c3        1 MOL     -0.311933
     21 C8          1.6140   -4.9410   -2.5130 c         1 MOL      0.572985
     22 O5          1.6090   -5.7580   -3.4870 o         1 MOL     -0.589211
     23 C9         -0.8190   -5.2410   -1.5820 c3        1 MOL      0.169279
     24 C10        -1.2880   -3.7640   -1.9070 c3        1 MOL      0.066633
     25 C11        -1.5170   -5.7590   -0.3350 c3        1 MOL     -0.221985
     26 C12        -2.7550   -3.5250   -2.3820 c3        1 MOL     -0.160501
     27 H8          1.0240   -3.6040   -0.0210 hn        1 MOL      0.180797
     28 H9          0.9500   -6.3730   -1.0790 h1        1 MOL      0.126295
     29 H10        -1.2000   -5.8670   -2.3840 hc        1 MOL      0.009217
     30 H11        -0.6830   -3.4580   -2.7670 hc        1 MOL      0.006408
     31 H12        -1.1630   -3.0770   -1.0660 hc        1 MOL      0.006408
     32 H13        -1.1870   -6.7800   -0.1780 hc        1 MOL      0.038855
     33 H14        -1.3160   -5.1410    0.5360 hc        1 MOL      0.038855
     34 H15        -2.5980   -5.8440   -0.4830 hc        1 MOL      0.038855
     35 H16        -3.0530   -4.0510   -3.2890 hc        1 MOL      0.029952
     36 H17        -3.4590   -3.7220   -1.5730 hc        1 MOL      0.029952
     37 H18        -2.9500   -2.4540   -2.4190 hc        1 MOL      0.029952
     38 N3          2.4310   -3.8910   -2.4350 n         1 MOL     -0.270762
     39 C13         3.1350   -3.3350   -3.5720 c3        1 MOL     -0.077871
     40 C14         4.6270   -2.8630   -3.3680 c         1 MOL      0.594131
     41 O6          5.2490   -2.5730   -4.3350 o         1 MOL     -0.562759
     42 C15         2.3580   -2.2300   -4.3070 c3        1 MOL     -0.274839
     43 C16         1.7210   -1.0950   -3.4510 c         1 MOL      0.683997
     44 O7          2.0130   -1.0520   -2.2120 o         1 MOL     -0.679909
     45 O8          1.0930   -0.1740   -3.9800 o         1 MOL     -0.679909
     46 H19         2.5860   -3.4110   -1.5600 hn        1 MOL      0.110524
     47 H20         3.3600   -4.1610   -4.2450 h1        1 MOL      0.084522
     48 H21         1.4550   -2.7020   -4.6820 hc        1 MOL      0.089678
     49 H22         2.9350   -1.7040   -5.0770 hc        1 MOL      0.089678
     50 N4          5.1270   -2.8440   -2.1310 n         1 MOL     -0.276276
     51 C17         6.5460   -2.7780   -1.7190 c3        1 MOL     -0.202070
     52 C18         7.1970   -1.3920   -1.8650 c         1 MOL      0.531510
     53 O9          8.4030   -1.3430   -1.9610 o         1 MOL     -0.586186
     54 H23         4.5190   -3.0570   -1.3560 hn        1 MOL      0.168931
     55 H24         7.0330   -3.4090   -2.4560 h1        1 MOL      0.107848
     56 H25         6.7670   -3.1130   -0.7070 h1        1 MOL      0.107848
     57 N5          6.3160   -0.3430   -1.9480 n         1 MOL     -0.196722
     58 C19         6.7540    1.0210   -2.2630 c3        1 MOL     -0.010038
     59 C20         7.3240    1.9080   -1.1480 c         1 MOL      0.384071
     60 O10         7.7910    2.9540   -1.4450 o         1 MOL     -0.531345
     61 C21         5.5380    1.6840   -2.9620 c3        1 MOL     -0.306612
     62 C22         4.2420    1.8300   -2.1980 c         1 MOL      0.878055
     63 O11         3.9770    1.0790   -1.2490 o         1 MOL     -0.709720
     64 O12         3.4410    2.7160   -2.5660 o         1 MOL     -0.709720
     65 H26         5.3260   -0.4740   -1.8250 hn        1 MOL      0.142288
     66 H27         7.5400    0.9420   -3.0090 h1        1 MOL      0.092215
     67 H28         5.3780    1.0710   -3.8480 hc        1 MOL      0.078273
     68 H29         5.7680    2.6970   -3.2940 hc        1 MOL      0.078273
     69 N6          7.1030    1.5530    0.0960 n         1 MOL     -0.118818
     70 C23         7.4460    2.2400    1.3170 c3        1 MOL     -0.305991
     71 C24         6.3730    3.2080    1.6640 c         1 MOL      0.617159
     72 O13         6.6630    3.9300    2.5820 o         1 MOL     -0.614575
     73 H30         6.7580    0.6160    0.2640 hn        1 MOL      0.152484
     74 H31         8.4050    2.7400    1.2480 h1        1 MOL      0.132460
     75 H32         7.5290    1.4470    2.0580 h1        1 MOL      0.132460
     76 N7          5.1880    3.1610    1.1650 n         1 MOL     -0.334473
     77 C25         4.0070    3.9680    1.6340 c3        1 MOL      0.057284
     78 C26         2.7030    3.0750    1.8510 c         1 MOL      0.382920
     79 O14         2.7470    1.9140    1.6390 o         1 MOL     -0.447019
     80 C27         3.5990    5.0050    0.5750 c3        1 MOL     -0.041610
     81 C28         4.8010    5.8670    0.1380 c3        1 MOL     -0.305040
     82 C29         4.3300    7.1650   -0.5620 c         1 MOL      0.749908
     83 N8          5.1600    8.1180   -0.7580 n         1 MOL     -0.830274
     84 O15         3.1310    7.3820   -0.8510 o         1 MOL     -0.589521
     85 H33         4.9920    2.4780    0.4480 hn        1 MOL      0.263851
     86 H34         4.3630    4.4930    2.5170 h1        1 MOL      0.057674
     87 H35         2.8960    5.6910    1.0270 hc        1 MOL      0.060754
     88 H36         3.2640    4.5490   -0.3550 hc        1 MOL      0.060754
     89 H37         5.2660    5.3010   -0.6780 hc        1 MOL      0.088518
     90 H38         5.5740    6.0440    0.8900 hc        1 MOL      0.088518
     91 H39         6.0920    8.0590   -0.3810 hn        1 MOL      0.357124
     92 H40         4.9350    8.8730   -1.3870 hn        1 MOL      0.357124
     93 N9          1.5320    3.6830    2.2720 n         1 MOL     -0.463008
     94 C30         0.1670    3.0420    2.4780 c3        1 MOL      0.020266
     95 C31        -0.8710    3.3290    1.4610 c         1 MOL      0.475099
     96 O16        -1.3780    4.4360    1.4040 o         1 MOL     -0.586093
     97 C32        -0.4260    3.4600    3.8540 c3        1 MOL      0.174382
     98 C33        -1.7600    2.8710    4.2940 c3        1 MOL     -0.198817
     99 C34         0.5880    3.1250    4.8820 c3        1 MOL     -0.198817
    100 H41         1.6540    4.6770    2.4560 hn        1 MOL      0.283337
    101 H42         0.3090    1.9640    2.5100 h1        1 MOL      0.185949
    102 H43        -0.5400    4.5350    3.9140 hc        1 MOL      0.006079
    103 H44        -2.1100    3.4190    5.1720 hc        1 MOL      0.033327
    104 H45        -2.5140    3.1070    3.5490 hc        1 MOL      0.033327
    105 H46        -1.6490    1.8270    4.5670 hc        1 MOL      0.033327
    106 H47         0.9690    2.1140    4.7640 hc        1 MOL      0.033327
    107 H48         1.3970    3.8400    4.9850 hc        1 MOL      0.033327
    108 H49         0.1720    3.0980    5.8980 hc        1 MOL      0.033327
    109 N10        -1.2640    2.3630    0.5780 n         1 MOL     -0.283062
    110 C35        -2.4520    2.5400   -0.2980 c3        1 MOL      0.048234
    111 C36        -3.7570    2.3750    0.5370 c         1 MOL      0.126823
    112 O17        -3.8140    1.7050    1.5680 o         1 MOL     -0.233127
    113 C37        -2.3380    1.4020   -1.3280 c3        1 MOL     -0.351080
    114 C38        -3.4540    1.5060   -2.3260 c         1 MOL      0.846760
    115 N11        -3.6820    2.5520   -3.0550 n         1 MOL     -0.793204
    116 O18        -4.2470    0.6010   -2.3470 o         1 MOL     -0.645087
    117 H50        -0.7770    1.4780    0.5230 hn        1 MOL      0.309919
    118 H51        -2.3380    3.4710   -0.8440 h1        1 MOL      0.095976
    119 H52        -2.3830    0.4440   -0.8110 hc        1 MOL      0.127155
    120 H53        -1.4000    1.5920   -1.8490 hc        1 MOL      0.127155
    121 H54        -3.1740    3.4220   -2.9210 hn        1 MOL      0.338328
    122 H55        -4.3760    2.4280   -3.7670 hn        1 MOL      0.338328
    123 N12        -4.8890    2.9640    0.0510 n         1 MOL     -0.160915
    124 C39        -6.2240    2.7040    0.5970 c3        1 MOL      0.002476
    125 C40        -6.6220    1.2340    0.7530 c         1 MOL      0.361073
    126 O19        -7.3130    0.9020    1.7530 o         1 MOL     -0.603853
    127 C41        -7.2180    3.5020   -0.2610 c3        1 MOL      0.081359
    128 C42        -7.3150    3.1620   -1.7520 ca        1 MOL     -0.146844
    129 C43        -6.5960    3.9110   -2.6890 ca        1 MOL      0.016898
    130 C44        -7.8640    1.9250   -2.2150 ca        1 MOL      0.016898
    131 C45        -6.7230    3.6010   -4.0610 ca        1 MOL     -0.391054
    132 C46        -7.9880    1.6270   -3.5470 ca        1 MOL     -0.391054
    133 C47        -7.4730    2.4430   -4.5220 ca        1 MOL      0.464272
    134 O20        -7.5980    2.1940   -5.8670 oh        1 MOL     -0.476037
    135 H56        -4.8340    3.4890   -0.8100 hn        1 MOL      0.132881
    136 H57        -6.1730    3.1220    1.6030 h1        1 MOL      0.064463
    137 H58        -7.0080    4.5760   -0.2040 hc        1 MOL     -0.004065
    138 H59        -8.1530    3.4190    0.2850 hc        1 MOL     -0.004065
    139 H60        -6.0630    4.8090   -2.4000 ha        1 MOL      0.080353
    140 H61        -8.2460    1.1390   -1.5740 ha        1 MOL      0.080353
    141 H62        -6.3240    4.2690   -4.8100 ha        1 MOL      0.140286
    142 H63        -8.5070    0.7580   -3.9340 ha        1 MOL      0.140286
    143 H64        -7.2030    2.8280   -6.4760 ho        1 MOL      0.328300
    144 N13        -6.0880    0.2380    0.0510 n         1 MOL      0.475594
    145 C48        -6.2820   -1.1370    0.3780 c3        1 MOL     -0.618923
    146 C49        -5.5540   -1.6770    1.5580 c         1 MOL      0.579659
    147 O21        -5.8920   -2.7310    2.1280 o         1 MOL     -0.532481
    148 C50        -5.8380   -1.9690   -0.8340 c3        1 MOL      0.149226
    149 C51        -6.7570   -1.8340   -2.0750 c3        1 MOL     -0.250874
    150 C52        -8.2180   -2.3250   -1.7720 c         1 MOL      0.561932
    151 O22        -9.2080   -1.5860   -2.0000 o         1 MOL     -0.661721
    152 O23        -8.3330   -3.4120   -1.1090 o         1 MOL     -0.661721
    153 H65        -5.3090    0.4190   -0.5730 hn        1 MOL      0.047976
    154 H66        -7.3220   -1.3510    0.6120 h1        1 MOL      0.231047
    155 H67        -5.7720   -3.0220   -0.5710 hc        1 MOL      0.018570
    156 H68        -4.8010   -1.6670   -1.0030 hc        1 MOL      0.018570
    157 H69        -6.2260   -2.5020   -2.7540 hc        1 MOL      0.058066
    158 H70        -6.6990   -0.8120   -2.4620 hc        1 MOL      0.058066
    159 N14        -4.4300   -1.0440    1.9050 n         1 MOL     -0.340861
    160 C53        -3.6260   -1.5030    3.0210 c3        1 MOL     -0.179477
    161 C54        -4.0120   -0.7380    4.2490 c         1 MOL      0.473434
    162 O24        -3.9910   -1.2980    5.3680 o         1 MOL     -0.564418
    163 C55        -2.1600   -1.1840    2.7070 c3        1 MOL      0.088873
    164 C56        -1.7460   -1.7850    1.3200 c3        1 MOL     -0.026079
    165 C57        -0.3190   -1.2140    0.9500 c         1 MOL      0.837607
    166 O25         0.5840   -2.0410    0.7040 o         1 MOL     -0.861685
    167 O26        -0.1470    0.0060    0.9130 o         1 MOL     -0.861685
    168 H71        -4.2150   -0.1970    1.3970 hn        1 MOL      0.216173
    169 H72        -3.8000   -2.5660    3.1660 h1        1 MOL      0.137922
    170 H73        -1.3790   -1.5420    3.3850 hc        1 MOL     -0.015473
    171 H74        -2.0690   -0.1210    2.5010 hc        1 MOL     -0.015473
    172 H75        -2.4300   -1.5090    0.5060 hc        1 MOL      0.019579
    173 H76        -1.7280   -2.8600    1.4510 hc        1 MOL      0.019579
    174 N15        -4.5150    0.5420    4.0930 n         1 MOL     -0.051611
    175 C58        -5.1130    1.2910    5.2130 c3        1 MOL     -0.167526
    176 H77        -5.0070    2.3610    5.0310 h1        1 MOL      0.062624
    177 H78        -6.1700    1.0410    5.2950 h1        1 MOL      0.062624
    178 H79        -4.6040    1.0290    6.1400 h1        1 MOL      0.062624
    179 H80        -4.4830    0.9750    3.1870 hn        1 MOL      0.081242
    180 Ca1         2.4300   -0.3560    0.1820 Ca        1 MOL      1.767559
    181 O27         2.0570   -0.8400    3.1320 oh        1 MOL     -0.897853
    182 O28         1.3660    1.6610   -1.4480 oh        1 MOL     -0.897853
    183 H81         2.1590   -0.2860    3.9100 ho        1 MOL      0.417472
    184 H82         2.0160    2.3060   -1.7470 ho        1 MOL      0.417472
    185 H83         1.5620   -1.5980    3.4330 ho        1 MOL      0.417472
    186 H84         1.3740    0.9940   -2.1350 ho        1 MOL      0.417472
    187 O29         4.9270   -0.5660    1.1290 oh        1 MOL     -0.897853
    188 H85         4.9940   -1.5120    0.9710 ho        1 MOL      0.417472
    189 H86         5.4080   -0.4310    1.9450 ho        1 MOL      0.417472
@<TRIPOS>BOND
     1    1    2 1   
     2    1    4 1   
     3    1    5 1   
     4    1    6 1   
     5    2    3 2   
     6    2    7 1   
     7    7    8 1   
     8    7   15 1   
     9    8    9 1   
    10    8   11 1   
    11    8   16 1   
    12    9   10 2   
    13    9   19 1   
    14   11   12 1   
    15   11   17 1   
    16   11   18 1   
    17   12   13 1   
    18   12   14 1   
    19   19   20 1   
    20   19   27 1   
    21   20   21 1   
    22   20   23 1   
    23   20   28 1   
    24   21   22 2   
    25   21   38 1   
    26   23   24 1   
    27   23   25 1   
    28   23   29 1   
    29   24   26 1   
    30   24   30 1   
    31   24   31 1   
    32   25   32 1   
    33   25   33 1   
    34   25   34 1   
    35   26   35 1   
    36   26   36 1   
    37   26   37 1   
    38   38   39 1   
    39   38   46 1   
    40   39   40 1   
    41   39   42 1   
    42   39   47 1   
    43   40   41 2   
    44   40   50 1   
    45   42   43 1   
    46   42   48 1   
    47   42   49 1   
    48   43   44 1   
    49   43   45 1   
    50   50   51 1   
    51   50   54 1   
    52   51   52 1   
    53   51   55 1   
    54   51   56 1   
    55   52   53 2   
    56   52   57 1   
    57   57   58 1   
    58   57   65 1   
    59   58   59 1   
    60   58   61 1   
    61   58   66 1   
    62   59   60 2   
    63   59   69 1   
    64   61   62 1   
    65   61   67 1   
    66   61   68 1   
    67   62   63 1   
    68   62   64 1   
    69   69   70 1   
    70   69   73 1   
    71   70   71 1   
    72   70   74 1   
    73   70   75 1   
    74   71   72 2   
    75   71   76 1   
    76   76   77 1   
    77   76   85 1   
    78   77   78 1   
    79   77   80 1   
    80   77   86 1   
    81   78   79 2   
    82   78   93 1   
    83   80   81 1   
    84   80   87 1   
    85   80   88 1   
    86   81   82 1   
    87   81   89 1   
    88   81   90 1   
    89   82   83 1   
    90   82   84 2   
    91   83   91 1   
    92   83   92 1   
    93   93   94 1   
    94   93  100 1   
    95   94   95 1   
    96   94   97 1   
    97   94  101 1   
    98   95   96 2   
    99   95  109 1   
   100   97   98 1   
   101   97   99 1   
   102   97  102 1   
   103   98  103 1   
   104   98  104 1   
   105   98  105 1   
   106   99  106 1   
   107   99  107 1   
   108   99  108 1   
   109  109  110 1   
   110  109  117 1   
   111  110  111 1   
   112  110  113 1   
   113  110  118 1   
   114  111  112 2   
   115  111  123 1   
   116  113  114 1   
   117  113  119 1   
   118  113  120 1   
   119  114  115 1   
   120  114  116 2   
   121  115  121 1   
   122  115  122 1   
   123  123  124 1   
   124  123  135 1   
   125  124  125 1   
   126  124  127 1   
   127  124  136 1   
   128  125  126 2   
   129  125  144 1   
   130  127  128 1   
   131  127  137 1   
   132  127  138 1   
   133  128  129 ar  
   134  128  130 ar  
   135  129  131 ar  
   136  129  139 1   
   137  130  132 ar  
   138  130  140 1   
   139  131  133 ar  
   140  131  141 1   
   141  132  133 ar  
   142  132  142 1   
   143  133  134 1   
   144  134  143 1   
   145  144  145 1   
   146  144  153 1   
   147  145  146 1   
   148  145  148 1   
   149  145  154 1   
   150  146  147 2   
   151  146  159 1   
   152  148  149 1   
   153  148  155 1   
   154  148  156 1   
   155  149  150 1   
   156  149  157 1   
   157  149  158 1   
   158  150  151 1   
   159  150  152 1   
   160  159  160 1   
   161  159  168 1   
   162  160  161 1   
   163  160  163 1   
   164  160  169 1   
   165  161  162 2   
   166  161  174 1   
   167  163  164 1   
   168  163  170 1   
   169  163  171 1   
   170  164  165 1   
   171  164  172 1   
   172  164  173 1   
   173  165  166 1   
   174  165  167 1   
   175  174  175 1   
   176  174  179 1   
   177  175  176 1   
   178  175  177 1   
   179  175  178 1   
   180  181  183 1   
   181  181  185 1   
   182  182  184 1   
   183  182  186 1   
   184  187  188 1   
   185  187  189 1   
@<TRIPOS>SUBSTRUCTURE
     1 MOL         1 TEMP              0 ****  ****    0 ROOT
