@<TRIPOS>MOLECULE
MOL
  176   174     1     0     0
SMALL
resp


@<TRIPOS>ATOM
      1 C1          0.6200    3.4780    6.7640 c3        1 MOL     -0.250994
      2 C2          0.7400    3.0370    5.2800 c         1 MOL      0.600505
      3 O1          1.8560    2.6360    4.8010 o         1 MOL     -0.539798
      4 H1          0.1640    4.4670    6.8130 hc        1 MOL      0.068517
      5 H2         -0.0010    2.7650    7.3070 hc        1 MOL      0.068517
      6 H3          1.6110    3.5130    7.2140 hc        1 MOL      0.068517
      7 N1         -0.3200    3.2720    4.4860 n         1 MOL     -0.454507
      8 C3         -0.4560    2.8600    3.1120 c3        1 MOL     -0.003985
      9 C4         -0.4750    4.0550    2.0640 c         1 MOL      0.733990
     10 O2         -0.9600    5.1240    2.3450 o         1 MOL     -0.588574
     11 C5         -1.7520    2.0190    3.0910 c3        1 MOL     -0.198686
     12 C6         -2.1910    1.4780    1.7330 c         1 MOL      0.715503
     13 O3         -2.1370    2.1850    0.7360 o         1 MOL     -0.738664
     14 O4         -2.8390    0.4030    1.5820 o         1 MOL     -0.738664
     15 H4         -1.1660    3.5910    4.9270 hn        1 MOL      0.274144
     16 H5          0.4070    2.2400    2.8620 h1        1 MOL      0.067736
     17 H6         -2.5410    2.5640    3.6210 hc        1 MOL      0.073314
     18 H7         -1.6700    1.1240    3.7020 hc        1 MOL      0.073314
     19 N2          0.0490    3.8560    0.8630 n         1 MOL     -0.590102
     20 C7          0.0780    4.8900   -0.2070 c3        1 MOL     -0.085726
     21 C8         -1.2710    5.3350   -0.8330 c         1 MOL      0.640639
     22 O5         -1.3640    6.4360   -1.4180 o         1 MOL     -0.610782
     23 C9          1.2230    4.5040   -1.1450 c3        1 MOL      0.169835
     24 C10         1.6740    5.5450   -2.1190 c3        1 MOL     -0.214675
     25 C11         2.9980    5.2980   -2.7550 c3        1 MOL      0.342544
     26 C12         3.2450    6.4970   -3.6840 c3        1 MOL     -0.029758
     27 N3          4.4050    6.2540   -4.5230 n4        1 MOL     -0.463781
     28 H8          0.4350    2.9580    0.6070 hn        1 MOL      0.330776
     29 H9          0.4190    5.8500    0.1770 h1        1 MOL      0.103557
     30 H10         0.8900    3.6090   -1.6790 hc        1 MOL      0.032404
     31 H11         2.1320    4.2870   -0.5850 hc        1 MOL      0.032404
     32 H12         1.7050    6.5190   -1.6180 hc        1 MOL      0.021516
     33 H13         0.8930    5.5280   -2.8820 hc        1 MOL      0.021516
     34 H14         2.9500    4.4390   -3.4190 hc        1 MOL     -0.051711
     35 H15         3.7810    5.1150   -2.0090 hc        1 MOL     -0.051711
     36 H16         3.3760    7.4100   -3.1110 hx        1 MOL      0.099571
     37 H17         2.4040    6.5350   -4.3790 hx        1 MOL      0.099571
     38 H18         4.7000    7.0370   -5.0930 hn        1 MOL      0.350523
     39 H19         5.2430    6.0490   -3.9970 hn        1 MOL      0.350523
     40 H20         4.1830    5.6720   -5.3140 hn        1 MOL      0.350523
     41 N4         -2.2970    4.4850   -0.7560 n         1 MOL     -0.436798
     42 C13        -3.5280    4.5630   -1.6310 c3        1 MOL      0.082480
     43 C14        -4.8300    4.2350   -0.7730 c         1 MOL      0.359958
     44 O6         -5.9870    4.5390   -1.1800 o         1 MOL     -0.550274
     45 C15        -3.3280    3.6460   -2.7910 c3        1 MOL     -0.245233
     46 C16        -2.9220    2.1560   -2.4630 c         1 MOL      0.821779
     47 O7         -1.7600    1.7270   -2.6460 o         1 MOL     -0.796856
     48 O8         -3.7640    1.3970   -1.9240 o         1 MOL     -0.796856
     49 H21        -2.0190    3.6230   -0.3030 hn        1 MOL      0.265906
     50 H22        -3.5710    5.5700   -2.0440 h1        1 MOL      0.114581
     51 H23        -2.5440    4.0490   -3.4450 hc        1 MOL      0.068420
     52 H24        -4.1790    3.5820   -3.4550 hc        1 MOL      0.068420
     53 N5         -4.7170    3.4000    0.2320 n         1 MOL     -0.120225
     54 C17        -5.6930    2.9210    1.1680 c3        1 MOL     -0.146172
     55 C18        -6.3870    1.6390    0.8380 c         1 MOL      0.522021
     56 O9         -7.3470    1.2480    1.5480 o         1 MOL     -0.571174
     57 H25        -3.7720    3.0920    0.4280 hn        1 MOL      0.192121
     58 H26        -6.5340    3.5950    1.3430 h1        1 MOL      0.096229
     59 H27        -5.2470    2.8250    2.1590 h1        1 MOL      0.096229
     60 N6         -6.1680    1.1390   -0.3770 n         1 MOL     -0.259247
     61 C19        -7.0070    0.0800   -1.0080 c3        1 MOL      0.012012
     62 C20        -7.2890   -1.1570   -0.0940 c         1 MOL      0.493270
     63 O10        -8.3870   -1.7330   -0.1540 o         1 MOL     -0.538818
     64 C21        -6.2610   -0.4020   -2.2650 c3        1 MOL     -0.345520
     65 C22        -5.1270   -1.3920   -1.9870 c         1 MOL      0.780053
     66 N7         -4.9720   -2.2510   -2.9330 n         1 MOL     -0.819782
     67 O11        -4.2740   -1.2010   -1.1160 o         1 MOL     -0.652886
     68 H28        -5.3480    1.4850   -0.8450 hn        1 MOL      0.286023
     69 H29        -7.9710    0.4550   -1.3590 h1        1 MOL      0.097118
     70 H30        -5.9020    0.4290   -2.8630 hc        1 MOL      0.118243
     71 H31        -6.9580   -0.9890   -2.8630 hc        1 MOL      0.118243
     72 H32        -5.6520   -2.4260   -3.6510 hn        1 MOL      0.368177
     73 H33        -4.0480   -2.6550   -2.9960 hn        1 MOL      0.368177
     74 N8         -6.3760   -1.5890    0.8350 n         1 MOL     -0.252701
     75 C23        -6.4200   -2.8130    1.5900 c3        1 MOL     -0.170096
     76 C24        -5.0540   -3.3890    1.9410 c         1 MOL      0.527265
     77 O12        -5.0310   -4.2770    2.7560 o         1 MOL     -0.562314
     78 H34        -5.5660   -1.0360    1.0460 hn        1 MOL      0.225779
     79 H35        -6.9440   -3.6400    1.1340 h1        1 MOL      0.119307
     80 H36        -6.9780   -2.7180    2.5250 h1        1 MOL      0.119307
     81 N9         -3.9460   -3.1490    1.2180 n         1 MOL     -0.320355
     82 C25        -2.7230   -3.9760    1.4290 c3        1 MOL      0.087010
     83 C26        -1.3900   -3.2290    1.2670 c         1 MOL      0.387840
     84 O13        -1.2040   -2.3620    0.3670 o         1 MOL     -0.518082
     85 C27        -2.6920   -5.2330    0.5330 c3        1 MOL     -0.155956
     86 C28        -2.6810   -5.0310   -0.9630 ca        1 MOL      0.228518
     87 C29        -1.4650   -4.7270   -1.5970 ca        1 MOL     -0.262475
     88 C30        -3.8590   -5.1810   -1.7080 ca        1 MOL     -0.262475
     89 C31        -1.3650   -4.6860   -2.9900 ca        1 MOL     -0.171759
     90 C32        -3.7150   -5.1030   -3.1310 ca        1 MOL     -0.171759
     91 C33        -2.4530   -4.9250   -3.7720 ca        1 MOL      0.220573
     92 O14        -2.3070   -4.7590   -5.1470 oh        1 MOL     -0.502145
     93 H37        -4.0550   -2.5540    0.4130 hn        1 MOL      0.155644
     94 H38        -2.7270   -4.1990    2.4940 h1        1 MOL      0.091197
     95 H39        -3.5740   -5.8230    0.7780 hc        1 MOL      0.061812
     96 H40        -1.8710   -5.9250    0.7710 hc        1 MOL      0.061812
     97 H41        -0.5590   -4.5240   -1.0490 ha        1 MOL      0.177432
     98 H42        -4.8060   -5.3880   -1.2210 ha        1 MOL      0.177432
     99 H43        -0.4120   -4.3990   -3.4100 ha        1 MOL      0.119045
    100 H44        -4.6090   -5.2830   -3.7060 ha        1 MOL      0.119045
    101 H45        -3.1020   -5.0700   -5.5870 ho        1 MOL      0.372166
    102 N10        -0.3880   -3.5950    2.0780 n         1 MOL     -0.276758
    103 C34         0.9900   -3.0890    2.1240 c3        1 MOL     -0.031413
    104 C35         1.9050   -3.9030    1.1710 c         1 MOL      0.514486
    105 O15         1.6920   -5.0860    1.0600 o         1 MOL     -0.571423
    106 C36         1.6440   -3.1160    3.6050 c3        1 MOL      0.089356
    107 C37         0.6610   -2.3980    4.5970 c3        1 MOL     -0.088757
    108 C38         3.0140   -2.4730    3.6870 c3        1 MOL     -0.096368
    109 C39         0.3070   -0.9020    4.2590 c3        1 MOL      0.113717
    110 H46        -0.5970   -4.3620    2.6950 hn        1 MOL      0.244903
    111 H47         0.9770   -2.0650    1.7490 h1        1 MOL      0.101598
    112 H48         1.8670   -4.1100    3.9810 hc        1 MOL      0.024354
    113 H49         1.1520   -2.3720    5.5650 hc        1 MOL      0.002579
    114 H50        -0.1890   -3.0740    4.6920 hc        1 MOL      0.002579
    115 H51         3.2540   -1.9250    2.7750 hc        1 MOL      0.031443
    116 H52         3.0930   -1.6480    4.4060 hc        1 MOL      0.031443
    117 H53         3.8440   -3.1610    3.8410 hc        1 MOL      0.031443
    118 H54        -0.4280   -0.8860    3.4490 hc        1 MOL     -0.015599
    119 H55        -0.2700   -0.4570    5.0630 hc        1 MOL     -0.015599
    120 H56         1.2060   -0.3270    4.0740 hc        1 MOL     -0.015599
    121 N11         2.8490   -3.2000    0.5720 n         1 MOL      0.019317
    122 C40         3.9250   -3.8320   -0.2840 c3        1 MOL     -0.120451
    123 C41         5.1720   -3.0310   -0.1260 c         1 MOL      0.484058
    124 O16         5.1860   -1.8900    0.3890 o         1 MOL     -0.327947
    125 C42         3.4270   -3.9970   -1.7090 c3        1 MOL      0.202668
    126 O17         2.9900   -2.8530   -2.3760 oh        1 MOL     -0.593674
    127 H57         2.9540   -2.2440    0.8670 hn        1 MOL     -0.201457
    128 H58         4.0660   -4.8460    0.1050 h1        1 MOL      0.073374
    129 H59         2.7070   -4.7990   -1.8400 h1        1 MOL      0.004713
    130 H60         4.3010   -4.3860   -2.2390 h1        1 MOL      0.004713
    131 H61         2.5400   -3.0880   -3.1840 ho        1 MOL      0.426371
    132 N12         6.3270   -3.6310   -0.5430 n         1 MOL     -0.424456
    133 C43         7.6490   -3.1060   -0.1460 c3        1 MOL      0.057768
    134 C44         7.9640   -1.6150   -0.4840 c         1 MOL      0.460395
    135 O18         8.3940   -0.9110    0.4490 o         1 MOL     -0.493209
    136 C45         8.7560   -3.9800   -0.6390 c3        1 MOL     -0.309511
    137 H62         6.2550   -4.5090   -1.0410 hn        1 MOL      0.314292
    138 H63         7.6380   -3.2370    0.9340 h1        1 MOL      0.095405
    139 H64         8.4790   -5.0310   -0.5310 hc        1 MOL      0.097061
    140 H65         8.8930   -3.9420   -1.7190 hc        1 MOL      0.097061
    141 H66         9.6930   -3.7680   -0.1360 hc        1 MOL      0.097061
    142 N13         7.6250   -1.1570   -1.6710 n         1 MOL     -0.343815
    143 C46         7.8150    0.2080   -2.0590 c3        1 MOL      0.039402
    144 C47         6.8600    1.1430   -1.2880 c         1 MOL      0.380631
    145 O19         7.2890    2.2690   -0.8760 o         1 MOL     -0.536863
    146 C48         7.8290    0.3430   -3.6240 c3        1 MOL     -0.231643
    147 H67         7.3370   -1.8070   -2.3870 hn        1 MOL      0.255880
    148 H68         8.7970    0.5540   -1.7310 h1        1 MOL      0.110340
    149 H69         8.1160    1.3700   -3.8270 hc        1 MOL      0.072576
    150 H70         8.5870   -0.2630   -4.1160 hc        1 MOL      0.072576
    151 H71         6.8950    0.2110   -4.1620 hc        1 MOL      0.072576
    152 N14         5.6640    0.7660   -0.9340 n         1 MOL     -0.276120
    153 C49         4.8050    1.6680   -0.1030 c3        1 MOL     -0.071321
    154 C50         5.0680    1.4860    1.3960 c         1 MOL      0.442156
    155 O20         4.7190    2.4490    2.1600 o         1 MOL     -0.540881
    156 C51         3.2750    1.4890   -0.3890 c3        1 MOL     -0.042625
    157 C52         2.7570    0.0670    0.0490 c3        1 MOL      0.301595
    158 C53         1.2590    0.0470   -0.2240 c         1 MOL      0.555862
    159 O21         0.4670    0.7430    0.4350 o         1 MOL     -0.703371
    160 O22         0.9000   -0.6960   -1.1600 o         1 MOL     -0.703371
    161 H72         5.3500   -0.1700   -1.1440 hn        1 MOL      0.212861
    162 H73         5.0270    2.7000   -0.3480 h1        1 MOL      0.117547
    163 H74         3.0590    1.6460   -1.4480 hc        1 MOL     -0.042317
    164 H75         2.6850    2.2480    0.1190 hc        1 MOL     -0.042317
    165 H76         2.9290   -0.1120    1.1050 hc        1 MOL     -0.035782
    166 H77         3.2090   -0.7130   -0.5750 hc        1 MOL     -0.035782
    167 N15         5.6570    0.4150    1.8350 n         1 MOL      0.005688
    168 C54         6.3250    0.3210    3.0680 c3        1 MOL     -0.156105
    169 H78         6.0380    1.1620    3.7010 h1        1 MOL      0.067870
    170 H79         6.0510   -0.6130    3.5600 h1        1 MOL      0.067870
    171 H80         7.4020    0.3430    2.9020 h1        1 MOL      0.067870
    172 H81         5.7380   -0.3880    1.2280 hn        1 MOL      0.094902
    173 Ca1        -1.7590   -0.0670   -0.7250 Ca        1 MOL      1.726712
    174 O23        -1.5320   -1.1970   -3.0500 oh        1 MOL     -0.768162
    175 H82        -2.1410   -0.9910   -3.7590 ho        1 MOL      0.398551
    176 H83        -0.7540   -1.5220   -3.5090 ho        1 MOL      0.398551
@<TRIPOS>BOND
     1    1    2 1   
     2    1    4 1   
     3    1    5 1   
     4    1    6 1   
     5    2    3 2   
     6    2    7 1   
     7    7    8 1   
     8    7   15 1   
     9    8    9 1   
    10    8   11 1   
    11    8   16 1   
    12    9   10 2   
    13    9   19 1   
    14   11   12 1   
    15   11   17 1   
    16   11   18 1   
    17   12   13 1   
    18   12   14 1   
    19   19   20 1   
    20   19   28 1   
    21   20   21 1   
    22   20   23 1   
    23   20   29 1   
    24   21   22 2   
    25   21   41 1   
    26   23   24 1   
    27   23   30 1   
    28   23   31 1   
    29   24   25 1   
    30   24   32 1   
    31   24   33 1   
    32   25   26 1   
    33   25   34 1   
    34   25   35 1   
    35   26   27 1   
    36   26   36 1   
    37   26   37 1   
    38   27   38 1   
    39   27   39 1   
    40   27   40 1   
    41   41   42 1   
    42   41   49 1   
    43   42   43 1   
    44   42   45 1   
    45   42   50 1   
    46   43   44 2   
    47   43   53 1   
    48   45   46 1   
    49   45   51 1   
    50   45   52 1   
    51   46   47 1   
    52   46   48 1   
    53   53   54 1   
    54   53   57 1   
    55   54   55 1   
    56   54   58 1   
    57   54   59 1   
    58   55   56 2   
    59   55   60 1   
    60   60   61 1   
    61   60   68 1   
    62   61   62 1   
    63   61   64 1   
    64   61   69 1   
    65   62   63 2   
    66   62   74 1   
    67   64   65 1   
    68   64   70 1   
    69   64   71 1   
    70   65   66 1   
    71   65   67 2   
    72   66   72 1   
    73   66   73 1   
    74   74   75 1   
    75   74   78 1   
    76   75   76 1   
    77   75   79 1   
    78   75   80 1   
    79   76   77 2   
    80   76   81 1   
    81   81   82 1   
    82   81   93 1   
    83   82   83 1   
    84   82   85 1   
    85   82   94 1   
    86   83   84 2   
    87   83  102 1   
    88   85   86 1   
    89   85   95 1   
    90   85   96 1   
    91   86   87 ar  
    92   86   88 ar  
    93   87   89 ar  
    94   87   97 1   
    95   88   90 ar  
    96   88   98 1   
    97   89   91 ar  
    98   89   99 1   
    99   90   91 ar  
   100   90  100 1   
   101   91   92 1   
   102   92  101 1   
   103  102  103 1   
   104  102  110 1   
   105  103  104 1   
   106  103  106 1   
   107  103  111 1   
   108  104  105 2   
   109  104  121 1   
   110  106  107 1   
   111  106  108 1   
   112  106  112 1   
   113  107  109 1   
   114  107  113 1   
   115  107  114 1   
   116  108  115 1   
   117  108  116 1   
   118  108  117 1   
   119  109  118 1   
   120  109  119 1   
   121  109  120 1   
   122  121  122 1   
   123  121  127 1   
   124  122  123 1   
   125  122  125 1   
   126  122  128 1   
   127  123  124 2   
   128  123  132 1   
   129  125  126 1   
   130  125  129 1   
   131  125  130 1   
   132  126  131 1   
   133  132  133 1   
   134  132  137 1   
   135  133  134 1   
   136  133  136 1   
   137  133  138 1   
   138  134  135 2   
   139  134  142 1   
   140  136  139 1   
   141  136  140 1   
   142  136  141 1   
   143  142  143 1   
   144  142  147 1   
   145  143  144 1   
   146  143  146 1   
   147  143  148 1   
   148  144  145 2   
   149  144  152 1   
   150  146  149 1   
   151  146  150 1   
   152  146  151 1   
   153  152  153 1   
   154  152  161 1   
   155  153  154 1   
   156  153  156 1   
   157  153  162 1   
   158  154  155 2   
   159  154  167 1   
   160  156  157 1   
   161  156  163 1   
   162  156  164 1   
   163  157  158 1   
   164  157  165 1   
   165  157  166 1   
   166  158  159 1   
   167  158  160 1   
   168  167  168 1   
   169  167  172 1   
   170  168  169 1   
   171  168  170 1   
   172  168  171 1   
   173  174  175 1   
   174  174  176 1   
@<TRIPOS>SUBSTRUCTURE
     1 MOL         1 TEMP              0 ****  ****    0 ROOT
