@<TRIPOS>MOLECULE
MOL
  189   185     1     0     0
SMALL
resp


@<TRIPOS>ATOM
      1 C1         -0.6600    0.4780    6.7260 c3        1 MOL     -0.372445
      2 C2         -0.9740    0.6610    5.2730 c         1 MOL      0.672280
      3 O1         -0.1770    1.3230    4.6050 o         1 MOL     -0.579690
      4 H1         -0.9830    1.3590    7.2810 hc        1 MOL      0.098007
      5 H2         -1.1830   -0.4010    7.1040 hc        1 MOL      0.098007
      6 H3          0.4140    0.3430    6.8520 hc        1 MOL      0.098007
      7 N1         -2.0920    0.1150    4.7290 n         1 MOL     -0.618753
      8 C3         -2.5800    0.3710    3.3470 c3        1 MOL      0.265867
      9 C4         -3.0100    1.8580    3.1400 c         1 MOL      0.514957
     10 O2         -3.9830    2.2730    3.6810 o         1 MOL     -0.561589
     11 C5         -3.7370   -0.5760    3.1530 c3        1 MOL     -0.424122
     12 C6         -4.2410   -0.3990    1.6810 c         1 MOL      0.744911
     13 O3         -3.5310    0.1250    0.7920 o         1 MOL     -0.624337
     14 O4         -5.2950   -0.9440    1.3210 o         1 MOL     -0.624337
     15 H4         -2.6590   -0.4400    5.3610 hn        1 MOL      0.329926
     16 H5         -1.8040    0.1470    2.6210 h1        1 MOL     -0.005334
     17 H6         -4.5430   -0.2720    3.8280 hc        1 MOL      0.112356
     18 H7         -3.2960   -1.5580    3.2910 hc        1 MOL      0.112356
     19 N2         -2.2490    2.6140    2.3890 n         1 MOL     -0.130942
     20 C7         -2.3500    4.0930    2.3430 c3        1 MOL     -0.173112
     21 C8         -3.3730    4.6900    1.3630 c         1 MOL      0.641244
     22 O5         -3.5060    5.8970    1.3120 o         1 MOL     -0.588382
     23 C9         -0.9760    4.7560    2.2030 c3        1 MOL     -0.091890
     24 C10        -0.3760    4.5190    0.7730 c3        1 MOL     -0.080290
     25 C11        -0.4520    5.8160   -0.0540 c3        1 MOL     -0.212393
     26 C12         0.3040    5.7660   -1.4470 c3        1 MOL      0.140906
     27 N3          0.0400    6.8640   -2.3790 n4        1 MOL     -0.432878
     28 H8         -1.4410    2.2250    1.9260 hn        1 MOL      0.218400
     29 H9         -2.7180    4.4110    3.3100 h1        1 MOL      0.119836
     30 H10        -0.3620    4.2880    2.9800 hc        1 MOL      0.074035
     31 H11        -0.9500    5.8290    2.3800 hc        1 MOL      0.074035
     32 H12        -0.9390    3.7850    0.2120 hc        1 MOL      0.080707
     33 H13         0.6880    4.3020    0.8010 hc        1 MOL      0.080707
     34 H14         0.0780    6.6070    0.4810 hc        1 MOL      0.070586
     35 H15        -1.4540    6.2300   -0.1090 hc        1 MOL      0.070586
     36 H16         0.0150    4.8290   -1.9240 hx        1 MOL      0.041208
     37 H17         1.3740    5.6350   -1.2720 hx        1 MOL      0.041208
     38 H18         0.3660    7.7380   -2.0080 hn        1 MOL      0.342751
     39 H19         0.4870    6.6940   -3.2680 hn        1 MOL      0.342751
     40 H20        -0.9600    6.9440   -2.4490 hn        1 MOL      0.342751
     41 N4         -4.0710    3.8600    0.6140 n         1 MOL     -0.470501
     42 C13        -4.8950    4.3010   -0.5220 c3        1 MOL      0.359341
     43 C14        -6.1610    3.4230   -0.6170 c         1 MOL      0.381608
     44 O6         -7.1070    3.9100   -1.2190 o         1 MOL     -0.516334
     45 C15        -4.0460    4.4390   -1.8250 c3        1 MOL     -0.546356
     46 C16        -3.0440    3.3230   -2.1630 c         1 MOL      0.988639
     47 O7         -2.9460    2.3150   -1.4360 o         1 MOL     -0.735112
     48 O8         -2.3040    3.5080   -3.1760 o         1 MOL     -0.735112
     49 H21        -3.7850    2.8910    0.5910 hn        1 MOL      0.009999
     50 H22        -5.3410    5.2720   -0.2990 h1        1 MOL      0.034270
     51 H23        -3.3430    5.2470   -1.6300 hc        1 MOL      0.118883
     52 H24        -4.8200    4.6200   -2.5660 hc        1 MOL      0.118883
     53 N5         -6.1550    2.1900   -0.0900 n         1 MOL     -0.206820
     54 C17        -7.4050    1.4610    0.0900 c3        1 MOL     -0.163929
     55 C18        -7.6150    0.4950   -1.0270 c         1 MOL      0.541300
     56 O9         -8.7660    0.3220   -1.4460 o         1 MOL     -0.587972
     57 H25        -5.3890    2.0100    0.5290 hn        1 MOL      0.266308
     58 H26        -8.1940    2.1910   -0.0710 h1        1 MOL      0.100251
     59 H27        -7.5780    1.0170    1.0720 h1        1 MOL      0.100251
     60 N6         -6.5560   -0.0120   -1.6160 n         1 MOL     -0.258979
     61 C19        -6.6360   -1.1190   -2.6050 c3        1 MOL      0.154250
     62 C20        -6.6850   -2.4990   -1.8960 c         1 MOL      0.361542
     63 O10        -7.1190   -3.4020   -2.5780 o         1 MOL     -0.565269
     64 C21        -5.4910   -0.9730   -3.5900 c3        1 MOL     -0.309460
     65 C22        -4.1270   -0.8580   -3.0150 c         1 MOL      0.756614
     66 O11        -3.8460   -1.4330   -1.9530 o         1 MOL     -0.758355
     67 O12        -3.3550    0.0570   -3.4410 o         1 MOL     -0.758355
     68 H28        -5.6630    0.1960   -1.1820 hn        1 MOL      0.171401
     69 H29        -7.5330   -1.1170   -3.2320 h1        1 MOL      0.080937
     70 H30        -5.7940   -0.0620   -4.1110 hc        1 MOL      0.080073
     71 H31        -5.5500   -1.8410   -4.2380 hc        1 MOL      0.080073
     72 N7         -6.2970   -2.6800   -0.6690 n         1 MOL     -0.084670
     73 C23        -6.2100   -3.9100   -0.0090 c3        1 MOL     -0.099640
     74 C24        -4.8440   -4.5610    0.0740 c         1 MOL      0.596394
     75 O13        -4.7910   -5.6200    0.6280 o         1 MOL     -0.595664
     76 H32        -5.9380   -1.8570   -0.2110 hn        1 MOL      0.096744
     77 H33        -6.7380   -4.7210   -0.5040 h1        1 MOL      0.072425
     78 H34        -6.6310   -3.8280    0.9960 h1        1 MOL      0.072425
     79 N8         -3.8160   -4.0010   -0.5090 n         1 MOL     -0.443758
     80 C25        -2.4860   -4.6300   -0.4930 c3        1 MOL     -0.012982
     81 C26        -1.3660   -3.6830    0.0640 c         1 MOL      0.828766
     82 O14        -1.5070   -2.4650    0.1570 o         1 MOL     -0.735923
     83 C27        -2.1550   -5.1800   -1.8400 c3        1 MOL      0.339095
     84 C28        -2.9100   -6.5580   -2.0390 c3        1 MOL     -0.660285
     85 O15        -2.5210   -4.2950   -2.8770 oh        1 MOL     -0.593138
     86 H35        -3.9730   -3.0970   -0.9300 hn        1 MOL      0.338138
     87 H36        -2.4040   -5.4670    0.1970 h1        1 MOL      0.046861
     88 H37        -1.0720   -5.2100   -1.9350 h1        1 MOL      0.029774
     89 H38        -3.3580   -4.5050   -3.2860 ho        1 MOL      0.412976
     90 H39        -2.8340   -7.1510   -1.1380 hc        1 MOL      0.180778
     91 H40        -3.9960   -6.4830   -2.1150 hc        1 MOL      0.180778
     92 H41        -2.5880   -7.0360   -2.9670 hc        1 MOL      0.180778
     93 N9         -0.2060   -4.2620    0.3920 n         1 MOL     -0.574406
     94 C29         0.9750   -3.5420    1.0070 c3        1 MOL      0.116305
     95 C30         2.1500   -3.5990    0.0050 c         1 MOL      0.368260
     96 O16         2.7420   -4.6370   -0.1800 o         1 MOL     -0.518915
     97 C31         1.3550   -4.1590    2.3930 c3        1 MOL     -0.022376
     98 C32         0.1700   -3.9260    3.3730 c3        1 MOL      0.017790
     99 C33         2.7060   -3.5390    2.8760 c3        1 MOL     -0.039946
    100 C34        -0.0400   -2.4280    3.7230 c3        1 MOL      0.169482
    101 H42        -0.1970   -5.2690    0.3310 hn        1 MOL      0.280620
    102 H43         0.7310   -2.4980    1.2240 h1        1 MOL      0.161153
    103 H44         1.4500   -5.2440    2.3500 hc        1 MOL      0.038321
    104 H45         0.3930   -4.4120    4.3180 hc        1 MOL     -0.022197
    105 H46        -0.7440   -4.3540    2.9630 hc        1 MOL     -0.022197
    106 H47         2.7940   -2.4520    2.9220 hc        1 MOL      0.008656
    107 H48         3.0500   -3.9540    3.8250 hc        1 MOL      0.008656
    108 H49         3.4370   -4.0050    2.2250 hc        1 MOL      0.008656
    109 H50        -1.0180   -2.3860    4.2160 hc        1 MOL     -0.046417
    110 H51         0.7250   -2.1600    4.4450 hc        1 MOL     -0.046417
    111 H52         0.0900   -1.6950    2.9320 hc        1 MOL     -0.046417
    112 N10         2.4850   -2.4560   -0.6410 n         1 MOL     -0.087892
    113 C35         3.6670   -2.2450   -1.4850 c3        1 MOL     -0.092751
    114 C36         4.9310   -2.0490   -0.6240 c         1 MOL      0.215632
    115 O17         4.7820   -1.8980    0.5960 o         1 MOL     -0.216631
    116 C37         3.5960   -0.9500   -2.3580 c3        1 MOL      0.321070
    117 C38         2.4770   -1.0320   -3.4580 c3        1 MOL     -0.207013
    118 O18         3.3060    0.1640   -1.5970 oh        1 MOL     -0.622936
    119 H53         1.8890   -1.6550   -0.4910 hn        1 MOL      0.061375
    120 H54         3.7760   -3.0840   -2.1610 h1        1 MOL      0.081583
    121 H55         4.5150   -0.8340   -2.9260 h1        1 MOL     -0.005051
    122 H56         2.3860    0.1420   -1.3550 ho        1 MOL      0.409746
    123 H57         2.5080   -0.1040   -4.0190 hc        1 MOL      0.054664
    124 H58         2.7480   -1.7900   -4.2020 hc        1 MOL      0.054664
    125 H59         1.4790   -1.1280   -3.0470 hc        1 MOL      0.054664
    126 N11         6.1060   -2.0500   -1.2440 n         1 MOL     -0.206903
    127 C39         7.4220   -1.6870   -0.6060 c3        1 MOL     -0.200494
    128 C40         7.3500   -0.3300    0.1140 c         1 MOL      0.289882
    129 O19         7.8530   -0.2160    1.1920 o         1 MOL     -0.461683
    130 C41         8.6410   -1.7800   -1.4840 c3        1 MOL      0.381857
    131 C42         8.8580   -3.0350   -2.2710 c3        1 MOL     -0.352310
    132 O20         8.5060   -0.7140   -2.4290 oh        1 MOL     -0.656896
    133 H60         6.0370   -2.3960   -2.1890 hn        1 MOL      0.246347
    134 H61         7.5080   -2.3590    0.2520 h1        1 MOL      0.155413
    135 H62         9.4850   -1.5150   -0.8590 h1        1 MOL      0.054783
    136 H63         9.4180   -0.5630   -2.6650 ho        1 MOL      0.337884
    137 H64         8.0250   -3.2980   -2.9260 hc        1 MOL      0.102766
    138 H65         9.7200   -2.8150   -2.8910 hc        1 MOL      0.102766
    139 H66         9.2440   -3.7980   -1.5990 hc        1 MOL      0.102766
    140 N12         6.6990    0.6620   -0.5080 n         1 MOL     -0.010600
    141 C43         6.4080    1.9630    0.0380 c3        1 MOL     -0.100409
    142 C44         5.4330    1.9980    1.1930 c         1 MOL      0.362140
    143 O21         5.4100    2.9700    2.0040 o         1 MOL     -0.541757
    144 C45         5.8150    2.9000   -1.0920 c3        1 MOL      0.111769
    145 C46         6.8630    3.4630   -2.1390 c3        1 MOL     -0.246519
    146 C47         7.8880    2.4380   -2.7230 c3        1 MOL     -0.001140
    147 C48         8.9110    3.0560   -3.6980 c3        1 MOL      0.056482
    148 N13         9.4620    2.0830   -4.6450 n4        1 MOL     -0.276657
    149 H67         6.4650    0.3640   -1.4480 hn        1 MOL      0.225355
    150 H68         7.3730    2.3930    0.3420 h1        1 MOL      0.103845
    151 H69         5.3250    3.7350   -0.5930 hc        1 MOL      0.020553
    152 H70         5.1020    2.3290   -1.6850 hc        1 MOL      0.020553
    153 H71         7.5210    4.1090   -1.5610 hc        1 MOL      0.075661
    154 H72         6.3990    4.0180   -2.9510 hc        1 MOL      0.075661
    155 H73         7.4570    1.5570   -3.1930 hc        1 MOL      0.030830
    156 H74         8.5250    2.1210   -1.8920 hc        1 MOL      0.030830
    157 H75         9.7570    3.5620   -3.2380 hx        1 MOL      0.071576
    158 H76         8.4960    3.8390   -4.3400 hx        1 MOL      0.071576
    159 H77         8.7630    1.7370   -5.2990 hn        1 MOL      0.288684
    160 H78        10.1970    2.4440   -5.2260 hn        1 MOL      0.288684
    161 H79         9.9260    1.3170   -4.1870 hn        1 MOL      0.288684
    162 N14         4.8560    0.8770    1.4760 n         1 MOL      0.017161
    163 C49         4.0070    0.7200    2.6530 c3        1 MOL     -0.125721
    164 C50         4.6000   -0.1890    3.6520 c         1 MOL      0.514757
    165 O22         4.4440    0.0220    4.8370 o         1 MOL     -0.553002
    166 C51         2.5570    0.3090    2.2040 c3        1 MOL      0.097134
    167 C52         1.9400    1.2650    1.1780 c3        1 MOL      0.226901
    168 C53         0.7360    0.7680    0.4850 c         1 MOL      0.571023
    169 O23         0.8960   -0.1230   -0.4160 o         1 MOL     -0.689964
    170 O24        -0.3840    1.1450    0.7870 o         1 MOL     -0.689964
    171 H80         4.9330    0.1500    0.7750 hn        1 MOL     -0.092253
    172 H81         3.8790    1.6720    3.1800 h1        1 MOL      0.117995
    173 H82         1.9070    0.2700    3.0850 hc        1 MOL      0.014910
    174 H83         2.6000   -0.6710    1.7440 hc        1 MOL      0.014910
    175 H84         2.7370    1.4840    0.4680 hc        1 MOL     -0.094022
    176 H85         1.5980    2.2060    1.6020 hc        1 MOL     -0.094022
    177 N15         5.4350   -1.1240    3.2220 n         1 MOL     -0.110603
    178 C54         6.2830   -2.0240    4.0360 c3        1 MOL     -0.278546
    179 H86         6.7740   -2.7470    3.3840 h1        1 MOL      0.109554
    180 H87         7.0380   -1.4380    4.5590 h1        1 MOL      0.109554
    181 H88         5.6640   -2.5510    4.7620 h1        1 MOL      0.109554
    182 H89         5.3460   -1.2830    2.2320 hn        1 MOL      0.079332
    183 Ca1        -1.7780    0.0940   -1.0810 Ca        1 MOL      1.767320
    184 O25        -0.4810    1.6760   -2.7860 oh        1 MOL     -0.880986
    185 H90        -0.0170    1.6810   -3.6260 ho        1 MOL      0.397104
    186 H91        -1.1340    2.3740   -2.8630 ho        1 MOL      0.397104
    187 O26        -1.2340   -1.8140   -3.2040 oh        1 MOL     -0.880986
    188 H92        -1.7160   -2.6460   -3.2480 ho        1 MOL      0.397104
    189 H93        -1.7790   -1.2000   -3.7070 ho        1 MOL      0.397104
@<TRIPOS>BOND
     1    1    2 1   
     2    1    4 1   
     3    1    5 1   
     4    1    6 1   
     5    2    3 2   
     6    2    7 1   
     7    7    8 1   
     8    7   15 1   
     9    8    9 1   
    10    8   11 1   
    11    8   16 1   
    12    9   10 2   
    13    9   19 1   
    14   11   12 1   
    15   11   17 1   
    16   11   18 1   
    17   12   13 1   
    18   12   14 1   
    19   19   20 1   
    20   19   28 1   
    21   20   21 1   
    22   20   23 1   
    23   20   29 1   
    24   21   22 2   
    25   21   41 1   
    26   23   24 1   
    27   23   30 1   
    28   23   31 1   
    29   24   25 1   
    30   24   32 1   
    31   24   33 1   
    32   25   26 1   
    33   25   34 1   
    34   25   35 1   
    35   26   27 1   
    36   26   36 1   
    37   26   37 1   
    38   27   38 1   
    39   27   39 1   
    40   27   40 1   
    41   41   42 1   
    42   41   49 1   
    43   42   43 1   
    44   42   45 1   
    45   42   50 1   
    46   43   44 2   
    47   43   53 1   
    48   45   46 1   
    49   45   51 1   
    50   45   52 1   
    51   46   47 1   
    52   46   48 1   
    53   53   54 1   
    54   53   57 1   
    55   54   55 1   
    56   54   58 1   
    57   54   59 1   
    58   55   56 2   
    59   55   60 1   
    60   60   61 1   
    61   60   68 1   
    62   61   62 1   
    63   61   64 1   
    64   61   69 1   
    65   62   63 2   
    66   62   72 1   
    67   64   65 1   
    68   64   70 1   
    69   64   71 1   
    70   65   66 1   
    71   65   67 1   
    72   72   73 1   
    73   72   76 1   
    74   73   74 1   
    75   73   77 1   
    76   73   78 1   
    77   74   75 2   
    78   74   79 1   
    79   79   80 1   
    80   79   86 1   
    81   80   81 1   
    82   80   83 1   
    83   80   87 1   
    84   81   82 2   
    85   81   93 1   
    86   83   84 1   
    87   83   85 1   
    88   83   88 1   
    89   84   90 1   
    90   84   91 1   
    91   84   92 1   
    92   85   89 1   
    93   93   94 1   
    94   93  101 1   
    95   94   95 1   
    96   94   97 1   
    97   94  102 1   
    98   95   96 2   
    99   95  112 1   
   100   97   98 1   
   101   97   99 1   
   102   97  103 1   
   103   98  100 1   
   104   98  104 1   
   105   98  105 1   
   106   99  106 1   
   107   99  107 1   
   108   99  108 1   
   109  100  109 1   
   110  100  110 1   
   111  100  111 1   
   112  112  113 1   
   113  112  119 1   
   114  113  114 1   
   115  113  116 1   
   116  113  120 1   
   117  114  115 2   
   118  114  126 1   
   119  116  117 1   
   120  116  118 1   
   121  116  121 1   
   122  117  123 1   
   123  117  124 1   
   124  117  125 1   
   125  118  122 1   
   126  126  127 1   
   127  126  133 1   
   128  127  128 1   
   129  127  130 1   
   130  127  134 1   
   131  128  129 2   
   132  128  140 1   
   133  130  131 1   
   134  130  132 1   
   135  130  135 1   
   136  131  137 1   
   137  131  138 1   
   138  131  139 1   
   139  132  136 1   
   140  140  141 1   
   141  140  149 1   
   142  141  142 1   
   143  141  144 1   
   144  141  150 1   
   145  142  143 2   
   146  142  162 1   
   147  144  145 1   
   148  144  151 1   
   149  144  152 1   
   150  145  146 1   
   151  145  153 1   
   152  145  154 1   
   153  146  147 1   
   154  146  155 1   
   155  146  156 1   
   156  147  148 1   
   157  147  157 1   
   158  147  158 1   
   159  148  159 1   
   160  148  160 1   
   161  148  161 1   
   162  162  163 1   
   163  162  171 1   
   164  163  164 1   
   165  163  166 1   
   166  163  172 1   
   167  164  165 2   
   168  164  177 1   
   169  166  167 1   
   170  166  173 1   
   171  166  174 1   
   172  167  168 1   
   173  167  175 1   
   174  167  176 1   
   175  168  169 1   
   176  168  170 1   
   177  177  178 1   
   178  177  182 1   
   179  178  179 1   
   180  178  180 1   
   181  178  181 1   
   182  184  185 1   
   183  184  186 1   
   184  187  188 1   
   185  187  189 1   
@<TRIPOS>SUBSTRUCTURE
     1 MOL         1 TEMP              0 ****  ****    0 ROOT
