@<TRIPOS>MOLECULE
MOL
  189   185     1     0     0
SMALL
resp


@<TRIPOS>ATOM
      1 C1          0.5850   -2.4620    6.5040 c3        1 MOL     -0.454778
      2 C2          0.8770   -2.2830    5.0230 c         1 MOL      0.792329
      3 O1          1.0510   -1.1600    4.5700 o         1 MOL     -0.608766
      4 H1         -0.4050   -2.0660    6.7300 hc        1 MOL      0.116580
      5 H2          0.6180   -3.5220    6.7560 hc        1 MOL      0.116580
      6 H3          1.3330   -1.9260    7.0890 hc        1 MOL      0.116580
      7 N1          1.0650   -3.3710    4.2340 n         1 MOL     -0.688342
      8 C3          1.5460   -3.4100    2.8540 c3        1 MOL      0.249525
      9 C4          1.0880   -4.6570    2.0180 c         1 MOL      0.522056
     10 O2          0.9550   -5.7420    2.5820 o         1 MOL     -0.572970
     11 C5          3.0460   -3.2750    2.9970 c3        1 MOL     -0.174966
     12 C6          3.7170   -3.4170    1.6280 c         1 MOL      0.656512
     13 O3          4.4880   -4.4030    1.4490 o         1 MOL     -0.660260
     14 O4          3.3830   -2.5780    0.7840 o         1 MOL     -0.660260
     15 H4          0.9960   -4.2890    4.6610 hn        1 MOL      0.328090
     16 H5          1.2980   -2.5300    2.2570 h1        1 MOL      0.094369
     17 H6          3.4110   -4.1020    3.5940 hc        1 MOL      0.003170
     18 H7          3.2830   -2.2490    3.2860 hc        1 MOL      0.003170
     19 N2          0.8900   -4.4290    0.7080 n         1 MOL     -0.116226
     20 C7          0.7170   -5.5030   -0.2790 c3        1 MOL     -0.093331
     21 C8          1.8230   -5.5490   -1.3980 c         1 MOL      0.614686
     22 O5          2.0210   -6.5960   -2.0110 o         1 MOL     -0.607704
     23 C9         -0.6790   -5.1590   -0.9600 c3        1 MOL      0.238641
     24 C10        -1.7920   -5.2190    0.1130 c3        1 MOL      0.002987
     25 C11        -1.0190   -6.1640   -2.0990 c3        1 MOL     -0.357631
     26 C12        -2.0670   -6.6680    0.6510 c3        1 MOL     -0.265298
     27 H8          0.9410   -3.4810    0.3910 hn        1 MOL     -0.174147
     28 H9          0.7720   -6.5050    0.1320 h1        1 MOL      0.093747
     29 H10        -0.6170   -4.1510   -1.3770 hc        1 MOL      0.019244
     30 H11        -2.6740   -4.7230   -0.3010 hc        1 MOL      0.029694
     31 H12        -1.4630   -4.7370    1.0330 hc        1 MOL      0.029694
     32 H13        -0.3020   -6.0890   -2.9090 hc        1 MOL      0.078601
     33 H14        -1.0240   -7.1900   -1.7420 hc        1 MOL      0.078601
     34 H15        -2.0240   -5.9930   -2.4730 hc        1 MOL      0.078601
     35 H16        -2.6370   -6.6190    1.5780 hc        1 MOL      0.053781
     36 H17        -2.4910   -7.4330    0.0020 hc        1 MOL      0.053781
     37 H18        -1.0970   -7.0600    0.9750 hc        1 MOL      0.053781
     38 N3          2.6650   -4.5210   -1.5940 n         1 MOL     -0.465330
     39 C13         3.6990   -4.4310   -2.6460 c3        1 MOL      0.171942
     40 C14         5.1230   -3.9200   -2.2940 c         1 MOL      0.361214
     41 O6          5.9960   -4.1900   -3.0880 o         1 MOL     -0.549588
     42 C15         3.0610   -3.6180   -3.7270 c3        1 MOL     -0.416456
     43 C16         2.6390   -2.1670   -3.3350 c         1 MOL      0.788237
     44 O7          3.1330   -1.5750   -2.3550 o         1 MOL     -0.703749
     45 O8          1.8270   -1.5460   -4.1250 o         1 MOL     -0.703749
     46 H19         2.4390   -3.6900   -1.0770 hn        1 MOL      0.359987
     47 H20         3.9220   -5.4430   -2.9680 h1        1 MOL      0.086712
     48 H21         2.1790   -4.1780   -4.0510 hc        1 MOL      0.103724
     49 H22         3.7860   -3.4380   -4.5150 hc        1 MOL      0.103724
     50 N4          5.3590   -3.2290   -1.1330 n         1 MOL     -0.063129
     51 C17         6.6920   -2.7760   -0.7440 c3        1 MOL     -0.208984
     52 C18         7.1000   -1.4350   -1.3900 c         1 MOL      0.476735
     53 O9          8.2850   -1.1050   -1.3290 o         1 MOL     -0.617800
     54 H23         4.5710   -3.0760   -0.5240 hn        1 MOL      0.075357
     55 H24         7.4860   -3.4700   -1.0450 h1        1 MOL      0.103585
     56 H25         6.7550   -2.7690    0.3440 h1        1 MOL      0.103585
     57 N5          6.2350   -0.6360   -2.0260 n         1 MOL     -0.054885
     58 C19         6.5790    0.5890   -2.7050 c3        1 MOL     -0.205325
     59 C20         7.0650    1.7930   -1.8870 c         1 MOL      0.548625
     60 O10         7.3970    2.8400   -2.4360 o         1 MOL     -0.550808
     61 C21         5.4480    1.0080   -3.6160 c3        1 MOL     -0.066618
     62 C22         4.2000    1.6170   -2.9610 c         1 MOL      0.694182
     63 O11         4.0960    1.4660   -1.7410 o         1 MOL     -0.685651
     64 O12         3.2900    2.1650   -3.6410 o         1 MOL     -0.685651
     65 H26         5.2530   -0.8920   -1.9960 hn        1 MOL      0.124033
     66 H27         7.3980    0.3270   -3.3770 h1        1 MOL      0.120160
     67 H28         5.0940    0.0650   -4.0150 hc        1 MOL      0.026524
     68 H29         5.6940    1.6130   -4.4960 hc        1 MOL      0.026524
     69 N6          7.0080    1.7150   -0.5320 n         1 MOL     -0.383534
     70 C23         7.4330    2.7580    0.3650 c3        1 MOL     -0.099547
     71 C24         6.3060    3.6290    0.8860 c         1 MOL      0.465050
     72 O13         6.6600    4.4420    1.7750 o         1 MOL     -0.589825
     73 H30         6.5370    0.9080   -0.1380 hn        1 MOL      0.249208
     74 H31         8.1800    3.4520   -0.0330 h1        1 MOL      0.095058
     75 H32         7.8710    2.3590    1.2800 h1        1 MOL      0.095058
     76 N7          4.9850    3.4920    0.4890 n         1 MOL     -0.303248
     77 C25         3.9070    4.2140    1.1000 c3        1 MOL      0.062563
     78 C26         2.6570    3.3620    1.2490 c         1 MOL      0.371915
     79 O14         2.6310    2.2500    0.6830 o         1 MOL     -0.509427
     80 C27         3.5060    5.3950    0.1680 c3        1 MOL     -0.271659
     81 C28         4.7540    6.2730   -0.1900 c3        1 MOL     -0.198024
     82 C29         4.4580    7.6460   -0.7480 c         1 MOL      0.686641
     83 N8          5.4090    8.2510   -1.3770 n         1 MOL     -0.789450
     84 O15         3.4520    8.2780   -0.4540 o         1 MOL     -0.585460
     85 H33         4.6610    2.8610   -0.2210 hn        1 MOL      0.273848
     86 H34         4.2310    4.5590    2.0810 h1        1 MOL      0.044745
     87 H35         2.7320    5.9110    0.7310 hc        1 MOL      0.115899
     88 H36         3.0600    5.0270   -0.7570 hc        1 MOL      0.115899
     89 H37         5.3760    5.7190   -0.9030 hc        1 MOL      0.109245
     90 H38         5.3820    6.5150    0.6580 hc        1 MOL      0.109245
     91 H39         6.2870    7.7940   -1.5860 hn        1 MOL      0.346191
     92 H40         5.3920    9.2420   -1.5210 hn        1 MOL      0.346191
     93 N9          1.6440    3.8420    1.9810 n         1 MOL     -0.345265
     94 C30         0.3870    3.0710    2.2130 c3        1 MOL     -0.000967
     95 C31        -0.7420    3.5480    1.2940 c         1 MOL      0.434183
     96 O16        -1.2770    4.6310    1.3030 o         1 MOL     -0.567061
     97 C32         0.0040    3.1580    3.6920 c3        1 MOL      0.090575
     98 C33        -1.2260    2.3180    4.0790 c3        1 MOL     -0.294692
     99 C34         1.1980    2.6030    4.6250 c3        1 MOL     -0.294692
    100 H41         1.7880    4.7130    2.4590 hn        1 MOL      0.308580
    101 H42         0.5130    1.9930    2.1260 h1        1 MOL      0.191396
    102 H43        -0.0950    4.2340    3.8390 hc        1 MOL     -0.014889
    103 H44        -1.3570    2.4320    5.1650 hc        1 MOL      0.071792
    104 H45        -2.0980    2.7560    3.5980 hc        1 MOL      0.071792
    105 H46        -1.0470    1.2480    3.9210 hc        1 MOL      0.071792
    106 H47         1.2950    1.5370    4.4140 hc        1 MOL      0.071792
    107 H48         2.1030    3.1510    4.3800 hc        1 MOL      0.071792
    108 H49         0.8330    2.7370    5.6510 hc        1 MOL      0.071792
    109 N10        -1.2100    2.6090    0.4550 n         1 MOL     -0.001313
    110 C35        -2.3210    2.8330   -0.4440 c3        1 MOL      0.054382
    111 C36        -3.6230    2.5110    0.3700 c         1 MOL      0.169418
    112 O17        -3.5920    1.7490    1.3220 o         1 MOL     -0.190966
    113 C37        -2.1880    1.8690   -1.6310 c3        1 MOL     -0.219152
    114 C38        -3.1450    2.0580   -2.8180 c         1 MOL      0.791083
    115 N11        -3.2970    3.2750   -3.3670 n         1 MOL     -0.858590
    116 O18        -3.7930    1.1400   -3.3060 o         1 MOL     -0.544321
    117 H50        -0.8350    1.6780    0.5930 hn        1 MOL     -0.090546
    118 H51        -2.3730    3.8890   -0.7340 h1        1 MOL      0.036946
    119 H52        -2.2550    0.8080   -1.3720 hc        1 MOL      0.081245
    120 H53        -1.1820    2.0410   -2.0030 hc        1 MOL      0.081245
    121 H54        -2.9410    4.0980   -2.9220 hn        1 MOL      0.365584
    122 H55        -3.8520    3.3710   -4.2120 hn        1 MOL      0.365584
    123 N12        -4.7510    2.9270   -0.1190 n         1 MOL     -0.214738
    124 C39        -5.9740    2.7870    0.5710 c3        1 MOL      0.107681
    125 C40        -6.4340    1.3130    0.8220 c         1 MOL      0.612314
    126 O19        -7.0260    1.0570    1.8400 o         1 MOL     -0.627608
    127 C41        -7.0180    3.6570   -0.0590 c3        1 MOL     -0.092261
    128 C42        -8.0980    2.9950   -0.9160 ca        1 MOL      0.108257
    129 C43        -9.0920    2.1250   -0.3830 ca        1 MOL     -0.275416
    130 C44        -7.9310    3.1300   -2.2990 ca        1 MOL     -0.275416
    131 C45        -9.9590    1.4770   -1.2380 ca        1 MOL     -0.144832
    132 C46        -8.8660    2.5300   -3.1110 ca        1 MOL     -0.144832
    133 C47        -9.8890    1.7500   -2.6130 ca        1 MOL      0.204103
    134 O20       -10.7680    1.1210   -3.4930 oh        1 MOL     -0.493580
    135 H56        -4.7380    3.3740   -1.0250 hn        1 MOL      0.190078
    136 H57        -5.8310    3.0870    1.6110 h1        1 MOL      0.016569
    137 H58        -6.4450    4.3720   -0.6620 hc        1 MOL      0.014024
    138 H59        -7.5950    4.1960    0.6930 hc        1 MOL      0.014024
    139 H60        -9.1800    1.9180    0.6680 ha        1 MOL      0.162133
    140 H61        -7.2260    3.8130   -2.7460 ha        1 MOL      0.162133
    141 H62       -10.7640    0.8830   -0.8240 ha        1 MOL      0.135381
    142 H63        -8.8990    2.7580   -4.1680 ha        1 MOL      0.135381
    143 H64       -11.2550    0.4240   -3.0540 ho        1 MOL      0.374929
    144 N13        -6.1030    0.4020   -0.0710 n         1 MOL      0.010384
    145 C48        -6.4040   -0.9910    0.0850 c3        1 MOL     -0.281818
    146 C49        -5.4350   -1.7160    1.1270 c         1 MOL      0.478818
    147 O21        -5.6710   -2.8190    1.6250 o         1 MOL     -0.537083
    148 C50        -6.5310   -1.6720   -1.3190 c3        1 MOL     -0.095286
    149 C51        -7.4830   -0.9590   -2.3370 c3        1 MOL     -0.192432
    150 C52        -7.6050   -1.8730   -3.5460 c         1 MOL      0.761018
    151 O22        -8.3290   -2.9050   -3.5030 o         1 MOL     -0.755374
    152 O23        -6.9210   -1.5680   -4.5160 o         1 MOL     -0.755374
    153 H65        -5.7290    0.7400   -0.9420 hn        1 MOL      0.069523
    154 H66        -7.3910   -1.0740    0.5500 h1        1 MOL      0.132679
    155 H67        -6.8930   -2.6710   -1.0940 hc        1 MOL      0.080094
    156 H68        -5.5720   -1.9440   -1.7690 hc        1 MOL      0.080094
    157 H69        -7.0780   -0.0220   -2.7170 hc        1 MOL      0.047223
    158 H70        -8.4490   -0.8600   -1.8370 hc        1 MOL      0.047223
    159 N14        -4.4000   -1.0210    1.5890 n         1 MOL     -0.261148
    160 C53        -3.3570   -1.5650    2.4350 c3        1 MOL      0.052106
    161 C54        -3.5890   -1.0720    3.9260 c         1 MOL      0.408733
    162 O24        -3.3620   -1.7350    4.9220 o         1 MOL     -0.571303
    163 C55        -2.0200   -1.0800    1.9500 c3        1 MOL     -0.049334
    164 C56        -1.7140   -1.4280    0.4860 c3        1 MOL     -0.248917
    165 C57        -0.2530   -1.0160    0.1690 c         1 MOL      0.797891
    166 O25         0.5010   -1.8240   -0.4690 o         1 MOL     -0.691310
    167 O26         0.1800    0.0560    0.5920 o         1 MOL     -0.691310
    168 H71        -4.3030   -0.0950    1.2070 hn        1 MOL      0.111574
    169 H72        -3.3610   -2.6480    2.4280 h1        1 MOL      0.058729
    170 H73        -1.2350   -1.4110    2.6300 hc        1 MOL      0.068145
    171 H74        -2.1270    0.0060    1.9610 hc        1 MOL      0.068145
    172 H75        -2.3570   -0.8660   -0.1900 hc        1 MOL      0.079992
    173 H76        -1.8580   -2.4900    0.2660 hc        1 MOL      0.079992
    174 N15        -4.0190    0.1620    3.9990 n         1 MOL      0.000620
    175 C58        -4.4020    0.9090    5.2080 c3        1 MOL     -0.120174
    176 H77        -4.6910    0.2080    5.9910 h1        1 MOL      0.059203
    177 H78        -3.5560    1.5060    5.5490 h1        1 MOL      0.059203
    178 H79        -5.2420    1.5640    4.9800 h1        1 MOL      0.059203
    179 H80        -4.0910    0.5680    3.0790 hn        1 MOL     -0.017678
    180 Ca1         2.7480   -0.2260   -0.1350 Ca        1 MOL      1.718674
    181 O27         2.5700   -0.0640    2.5430 oh        1 MOL     -0.799717
    182 H81         1.9530   -0.3710    3.2190 ho        1 MOL      0.391293
    183 H82         3.2320    0.4240    3.0360 ho        1 MOL      0.391293
    184 O28         1.1810    0.8320   -1.9440 oh        1 MOL     -0.799717
    185 H83         0.7150    0.2320   -2.5230 ho        1 MOL      0.391293
    186 H84         1.8040    1.2850   -2.5190 ho        1 MOL      0.391293
    187 O29         4.9990    0.1400    1.0810 oh        1 MOL     -0.799717
    188 H85         5.8170   -0.3290    1.2200 ho        1 MOL      0.391293
    189 H86         4.9390    0.7410    1.8200 ho        1 MOL      0.391293
@<TRIPOS>BOND
     1    1    2 1   
     2    1    4 1   
     3    1    5 1   
     4    1    6 1   
     5    2    3 2   
     6    2    7 1   
     7    7    8 1   
     8    7   15 1   
     9    8    9 1   
    10    8   11 1   
    11    8   16 1   
    12    9   10 2   
    13    9   19 1   
    14   11   12 1   
    15   11   17 1   
    16   11   18 1   
    17   12   13 1   
    18   12   14 1   
    19   19   20 1   
    20   19   27 1   
    21   20   21 1   
    22   20   23 1   
    23   20   28 1   
    24   21   22 2   
    25   21   38 1   
    26   23   24 1   
    27   23   25 1   
    28   23   29 1   
    29   24   26 1   
    30   24   30 1   
    31   24   31 1   
    32   25   32 1   
    33   25   33 1   
    34   25   34 1   
    35   26   35 1   
    36   26   36 1   
    37   26   37 1   
    38   38   39 1   
    39   38   46 1   
    40   39   40 1   
    41   39   42 1   
    42   39   47 1   
    43   40   41 2   
    44   40   50 1   
    45   42   43 1   
    46   42   48 1   
    47   42   49 1   
    48   43   44 1   
    49   43   45 1   
    50   50   51 1   
    51   50   54 1   
    52   51   52 1   
    53   51   55 1   
    54   51   56 1   
    55   52   53 2   
    56   52   57 1   
    57   57   58 1   
    58   57   65 1   
    59   58   59 1   
    60   58   61 1   
    61   58   66 1   
    62   59   60 2   
    63   59   69 1   
    64   61   62 1   
    65   61   67 1   
    66   61   68 1   
    67   62   63 1   
    68   62   64 1   
    69   69   70 1   
    70   69   73 1   
    71   70   71 1   
    72   70   74 1   
    73   70   75 1   
    74   71   72 2   
    75   71   76 1   
    76   76   77 1   
    77   76   85 1   
    78   77   78 1   
    79   77   80 1   
    80   77   86 1   
    81   78   79 2   
    82   78   93 1   
    83   80   81 1   
    84   80   87 1   
    85   80   88 1   
    86   81   82 1   
    87   81   89 1   
    88   81   90 1   
    89   82   83 1   
    90   82   84 2   
    91   83   91 1   
    92   83   92 1   
    93   93   94 1   
    94   93  100 1   
    95   94   95 1   
    96   94   97 1   
    97   94  101 1   
    98   95   96 2   
    99   95  109 1   
   100   97   98 1   
   101   97   99 1   
   102   97  102 1   
   103   98  103 1   
   104   98  104 1   
   105   98  105 1   
   106   99  106 1   
   107   99  107 1   
   108   99  108 1   
   109  109  110 1   
   110  109  117 1   
   111  110  111 1   
   112  110  113 1   
   113  110  118 1   
   114  111  112 2   
   115  111  123 1   
   116  113  114 1   
   117  113  119 1   
   118  113  120 1   
   119  114  115 1   
   120  114  116 2   
   121  115  121 1   
   122  115  122 1   
   123  123  124 1   
   124  123  135 1   
   125  124  125 1   
   126  124  127 1   
   127  124  136 1   
   128  125  126 2   
   129  125  144 1   
   130  127  128 1   
   131  127  137 1   
   132  127  138 1   
   133  128  129 ar  
   134  128  130 ar  
   135  129  131 ar  
   136  129  139 1   
   137  130  132 ar  
   138  130  140 1   
   139  131  133 ar  
   140  131  141 1   
   141  132  133 ar  
   142  132  142 1   
   143  133  134 1   
   144  134  143 1   
   145  144  145 1   
   146  144  153 1   
   147  145  146 1   
   148  145  148 1   
   149  145  154 1   
   150  146  147 2   
   151  146  159 1   
   152  148  149 1   
   153  148  155 1   
   154  148  156 1   
   155  149  150 1   
   156  149  157 1   
   157  149  158 1   
   158  150  151 1   
   159  150  152 1   
   160  159  160 1   
   161  159  168 1   
   162  160  161 1   
   163  160  163 1   
   164  160  169 1   
   165  161  162 2   
   166  161  174 1   
   167  163  164 1   
   168  163  170 1   
   169  163  171 1   
   170  164  165 1   
   171  164  172 1   
   172  164  173 1   
   173  165  166 1   
   174  165  167 1   
   175  174  175 1   
   176  174  179 1   
   177  175  176 1   
   178  175  177 1   
   179  175  178 1   
   180  181  182 1   
   181  181  183 1   
   182  184  185 1   
   183  184  186 1   
   184  187  188 1   
   185  187  189 1   
@<TRIPOS>SUBSTRUCTURE
     1 MOL         1 TEMP              0 ****  ****    0 ROOT
