@<TRIPOS>MOLECULE
MOL
  178   175     1     0     0
SMALL
resp


@<TRIPOS>ATOM
      1 C1          0.7990   -3.9370    5.5300 c3        1 MOL     -0.287926
      2 C2          0.7010   -3.0160    4.3160 c         1 MOL      0.804326
      3 O1         -0.3350   -3.0790    3.6470 o         1 MOL     -0.593076
      4 H1          1.8480   -4.1150    5.7670 hc        1 MOL      0.066152
      5 H2          0.3090   -3.4680    6.3840 hc        1 MOL      0.066152
      6 H3          0.3110   -4.8870    5.3070 hc        1 MOL      0.066152
      7 N1          1.7890   -2.3330    3.9530 n         1 MOL     -0.731056
      8 C3          1.9540   -1.9150    2.5650 c3        1 MOL      0.119025
      9 C4          2.1960   -3.1390    1.8120 c         1 MOL      0.569521
     10 O2          3.0930   -3.9370    2.1020 o         1 MOL     -0.571312
     11 C5          3.1170   -0.9280    2.4970 c3        1 MOL     -0.006608
     12 C6          3.2920   -0.3040    1.1030 c         1 MOL      0.860932
     13 O3          2.8450   -0.9530    0.1180 o         1 MOL     -0.793620
     14 O4          4.0560    0.6430    1.0840 o         1 MOL     -0.793620
     15 H4          2.6780   -2.3640    4.4410 hn        1 MOL      0.353432
     16 H5          1.0850   -1.4170    2.1150 h1        1 MOL      0.015965
     17 H6          4.0560   -1.3520    2.8540 hc        1 MOL     -0.002698
     18 H7          2.8280   -0.1310    3.1790 hc        1 MOL     -0.002698
     19 N2          1.4050   -3.4450    0.6900 n         1 MOL     -0.409814
     20 C7          1.4780   -4.6890    0.0220 c3        1 MOL      0.244922
     21 C8          2.6190   -4.7930   -1.0860 c         1 MOL      0.343263
     22 O5          2.6170   -5.7220   -1.9360 o         1 MOL     -0.577038
     23 C9          0.1210   -5.1120   -0.5170 c3        1 MOL     -0.112882
     24 H8          0.6680   -2.8020    0.4690 hn        1 MOL      0.255815
     25 H9          1.7470   -5.4560    0.7450 h1        1 MOL      0.011106
     26 H10         0.2390   -6.1500   -0.8370 hc        1 MOL      0.030575
     27 H11        -0.6720   -5.1310    0.2420 hc        1 MOL      0.030575
     28 H12        -0.2140   -4.5570   -1.3860 hc        1 MOL      0.030575
     29 N3          3.4590   -3.8750   -1.2040 n         1 MOL     -0.145675
     30 C10         4.7610   -3.7260   -1.8810 c3        1 MOL     -0.039417
     31 C11         5.8460   -2.9960   -1.1200 c         1 MOL      0.334147
     32 O6          6.9900   -2.7350   -1.5860 o         1 MOL     -0.501147
     33 C12         4.4460   -2.9880   -3.1900 c3        1 MOL     -0.114134
     34 C13         4.1230   -1.5320   -2.9380 c         1 MOL      0.721860
     35 O7          4.9630   -0.6190   -2.7320 o         1 MOL     -0.696974
     36 O8          2.9090   -1.1760   -2.9980 o         1 MOL     -0.696974
     37 H13         3.1450   -3.0280   -0.7510 hn        1 MOL      0.167971
     38 H14         5.1320   -4.7450   -2.0190 h1        1 MOL      0.120494
     39 H15         3.6500   -3.3700   -3.8320 hc        1 MOL      0.050349
     40 H16         5.3090   -3.1170   -3.8340 hc        1 MOL      0.050349
     41 N4          5.6240   -2.6490    0.1860 n         1 MOL     -0.055582
     42 C14         6.6140   -2.0890    1.1230 c3        1 MOL     -0.245190
     43 C15         7.3550   -0.7300    0.9190 c         1 MOL      0.543783
     44 O9          7.9850   -0.3440    1.8600 o         1 MOL     -0.578967
     45 H17         4.7780   -3.0280    0.6000 hn        1 MOL      0.088291
     46 H18         7.4150   -2.8200    1.2210 h1        1 MOL      0.109303
     47 H19         6.1470   -1.9590    2.0980 h1        1 MOL      0.109303
     48 N5          7.2460   -0.1110   -0.2940 n         1 MOL     -0.192413
     49 C16         7.8350    1.2770   -0.6120 c3        1 MOL     -0.129830
     50 C17         7.4150    2.4660    0.3330 c         1 MOL      0.446257
     51 O10         7.9220    3.6040    0.1850 o         1 MOL     -0.492908
     52 C18         7.6660    1.5610   -2.1070 c3        1 MOL     -0.273224
     53 C19         8.4100    0.4840   -2.9020 c         1 MOL      0.664596
     54 N6          7.6890   -0.4810   -3.4530 n         1 MOL     -0.778329
     55 O11         9.5900    0.4820   -2.9740 o         1 MOL     -0.604225
     56 H20         6.6110   -0.5900   -0.9060 hn        1 MOL      0.173340
     57 H21         8.9070    1.1540   -0.4390 h1        1 MOL      0.135116
     58 H22         7.9570    2.5740   -2.3890 hc        1 MOL      0.118816
     59 H23         6.6370    1.5510   -2.4600 hc        1 MOL      0.118816
     60 H24         6.7010   -0.5810   -3.2960 hn        1 MOL      0.347554
     61 H25         8.2260   -1.2400   -3.8540 hn        1 MOL      0.347554
     62 N7          6.4890    2.1220    1.3260 n         1 MOL     -0.212202
     63 C20         6.1770    3.0520    2.3800 c3        1 MOL     -0.138227
     64 C21         4.9200    3.9720    2.2110 c         1 MOL      0.620260
     65 O12         4.9640    5.1510    2.5050 o         1 MOL     -0.580740
     66 H26         5.9640    1.2640    1.2560 hn        1 MOL      0.281536
     67 H27         6.9370    3.8190    2.5140 h1        1 MOL      0.065404
     68 H28         5.9380    2.5410    3.3230 h1        1 MOL      0.065404
     69 N8          3.8110    3.4040    1.6800 n         1 MOL     -0.341765
     70 C22         2.4120    3.9070    1.5980 c3        1 MOL     -0.334886
     71 C23         1.3990    2.7760    1.4120 c         1 MOL      0.877041
     72 O13         1.5000    1.9970    0.4560 o         1 MOL     -0.639012
     73 C24         2.2820    4.8640    0.4090 c3        1 MOL      0.426178
     74 C25         0.9200    5.5490    0.3600 c3        1 MOL     -0.323030
     75 O14         3.0370    5.9810    0.7470 oh        1 MOL     -0.665772
     76 H29         3.8770    2.4800    1.2810 hn        1 MOL      0.195166
     77 H30         2.1970    4.4390    2.5250 h1        1 MOL      0.138517
     78 H31         2.6240    4.4600   -0.5390 h1        1 MOL      0.033067
     79 H32         3.7970    5.7200    1.2630 ho        1 MOL      0.411146
     80 H33         1.0220    6.4210   -0.2850 hc        1 MOL      0.081000
     81 H34         0.1840    4.8200    0.0380 hc        1 MOL      0.081000
     82 H35         0.6620    5.8830    1.3600 hc        1 MOL      0.081000
     83 N9          0.3690    2.6880    2.2510 n         1 MOL     -0.710277
     84 C26        -0.8410    1.8350    2.0210 c3        1 MOL      0.165541
     85 C27        -1.7930    2.6350    1.0950 c         1 MOL      0.318791
     86 O15        -1.9430    3.8780    1.2370 o         1 MOL     -0.531711
     87 C28        -1.4550    1.4780    3.3820 c3        1 MOL      0.020295
     88 C29        -0.5210    0.5460    4.2190 c3        1 MOL      0.037264
     89 C30        -2.8100    0.6120    3.2810 c3        1 MOL     -0.099206
     90 C31        -0.8250    0.5430    5.7130 c3        1 MOL     -0.194045
     91 H36         0.1510    3.3730    2.9680 hn        1 MOL      0.327060
     92 H37        -0.5330    0.9560    1.4560 h1        1 MOL      0.043504
     93 H38        -1.7250    2.3070    4.0240 hc        1 MOL      0.031545
     94 H39         0.5470    0.7350    4.1050 hc        1 MOL      0.031838
     95 H40        -0.5050   -0.4770    3.8460 hc        1 MOL      0.031838
     96 H41        -3.4060    0.5150    4.1940 hc        1 MOL      0.013516
     97 H42        -3.5290    1.0980    2.6180 hc        1 MOL      0.013516
     98 H43        -2.5620   -0.3800    2.8940 hc        1 MOL      0.013516
     99 H44        -0.7120    1.5710    6.0660 hc        1 MOL      0.035080
    100 H45        -1.8080    0.1100    5.8850 hc        1 MOL      0.035080
    101 H46        -0.0750   -0.0110    6.2710 hc        1 MOL      0.035080
    102 N10        -2.3350    1.9790    0.0500 n         1 MOL      0.022990
    103 C32        -3.4190    2.4750   -0.8150 c3        1 MOL     -0.006854
    104 C33        -4.7490    1.8140   -0.3830 c         1 MOL      0.503332
    105 O16        -4.7350    0.8610    0.3390 o         1 MOL     -0.362701
    106 C34        -3.1340    2.1810   -2.3050 c3        1 MOL     -0.196733
    107 C35        -1.6260    2.4460   -2.6400 c         1 MOL      0.699183
    108 O17        -1.3640    3.4310   -3.3370 o         1 MOL     -0.687280
    109 O18        -0.7890    1.5580   -2.3450 o         1 MOL     -0.687280
    110 H47        -2.0730    0.9970    0.0790 hn        1 MOL     -0.008537
    111 H48        -3.5140    3.5530   -0.7040 h1        1 MOL      0.066986
    112 H49        -3.7670    2.7870   -2.9590 hc        1 MOL      0.058333
    113 H50        -3.3270    1.1900   -2.6930 hc        1 MOL      0.058333
    114 N11        -5.9830    2.2890   -0.7350 n         1 MOL     -0.717907
    115 C36        -7.2460    1.6200   -0.3280 c3        1 MOL      0.335028
    116 C37        -7.3820    0.1460   -0.5910 c         1 MOL      0.410840
    117 O19        -7.7380   -0.5300    0.3680 o         1 MOL     -0.531191
    118 C38        -8.3680    2.5040   -0.8200 c3        1 MOL     -0.075003
    119 C39        -9.7570    1.9080   -0.5840 ca        1 MOL      0.058200
    120 C40       -10.3250    1.9220    0.6540 ca        1 MOL     -0.193939
    121 C41       -10.3690    1.2190   -1.6580 ca        1 MOL     -0.193939
    122 C42       -11.5970    1.3370    0.8410 ca        1 MOL     -0.007497
    123 C43       -11.6410    0.7100   -1.5270 ca        1 MOL     -0.007497
    124 C44       -12.2930    0.8090   -0.2680 ca        1 MOL     -0.248323
    125 H51        -5.9810    3.0310   -1.4260 hn        1 MOL      0.341470
    126 H52        -7.3760    1.7140    0.7440 h1        1 MOL      0.045128
    127 H53        -8.2610    2.6700   -1.8910 hc        1 MOL      0.035679
    128 H54        -8.3390    3.5120   -0.4160 hc        1 MOL      0.035679
    129 H55        -9.7270    2.4030    1.4140 ha        1 MOL      0.113807
    130 H56        -9.8750    1.1340   -2.6120 ha        1 MOL      0.113807
    131 H57       -11.9920    1.3260    1.8490 ha        1 MOL      0.089687
    132 H58       -12.1260    0.2790   -2.3910 ha        1 MOL      0.089687
    133 H59       -13.2120    0.2550   -0.1320 ha        1 MOL      0.133852
    134 N12        -7.0440   -0.4340   -1.7100 n         1 MOL     -0.150105
    135 C45        -7.0830   -1.8880   -1.8160 c3        1 MOL      0.123187
    136 C46        -6.0920   -2.6910   -0.8720 c         1 MOL      0.316808
    137 O20        -6.3580   -3.8230   -0.4110 o         1 MOL     -0.503148
    138 C47        -6.7450   -2.0460   -3.3340 c3        1 MOL     -0.210410
    139 C48        -5.8880   -0.7930   -3.7210 c3        1 MOL     -0.040204
    140 C49        -6.6260    0.2730   -2.9140 c3        1 MOL      0.113065
    141 H60        -8.0630   -2.3180   -1.6350 h1        1 MOL      0.046227
    142 H61        -6.3080   -3.0390   -3.4390 hc        1 MOL      0.068498
    143 H62        -7.7020   -2.0730   -3.8660 hc        1 MOL      0.068498
    144 H63        -4.8550   -0.9460   -3.4120 hc        1 MOL      0.047077
    145 H64        -5.8640   -0.5070   -4.7810 hc        1 MOL      0.047077
    146 H65        -6.0860    1.2140   -2.7740 h1        1 MOL     -0.025148
    147 H66        -7.5720    0.5070   -3.4030 h1        1 MOL     -0.025148
    148 N13        -5.1040   -1.9190   -0.4180 n         1 MOL     -0.161507
    149 C50        -4.0700   -2.5370    0.5010 c3        1 MOL      0.036908
    150 C51        -4.6200   -2.4790    1.8640 c         1 MOL      0.461784
    151 O21        -4.4960   -3.5020    2.5730 o         1 MOL     -0.572936
    152 C52        -2.7590   -1.7760    0.3160 c3        1 MOL      0.055182
    153 C53        -2.2220   -2.1920   -1.0960 c3        1 MOL     -0.067669
    154 C54        -0.8500   -1.5430   -1.3070 c         1 MOL      0.808939
    155 O22        -0.2570   -0.9110   -0.4540 o         1 MOL     -0.778845
    156 O23        -0.2570   -1.5760   -2.3830 o         1 MOL     -0.778845
    157 H67        -4.9800   -0.9440   -0.6660 hn        1 MOL      0.135861
    158 H68        -4.0240   -3.6140    0.3320 h1        1 MOL      0.084248
    159 H69        -2.1240   -2.1690    1.1090 hc        1 MOL      0.025155
    160 H70        -2.8070   -0.6970    0.4640 hc        1 MOL      0.025155
    161 H71        -2.9000   -1.7540   -1.8170 hc        1 MOL     -0.009787
    162 H72        -2.1670   -3.2780   -1.1770 hc        1 MOL     -0.009787
    163 N14        -5.3980   -1.4590    2.2780 n         1 MOL     -0.041611
    164 C55        -6.2660   -1.6550    3.4390 c3        1 MOL     -0.243583
    165 H73        -7.2460   -1.2230    3.2370 h1        1 MOL      0.086982
    166 H74        -6.3740   -2.7210    3.6370 h1        1 MOL      0.086982
    167 H75        -5.8260   -1.1660    4.3080 h1        1 MOL      0.086982
    168 H76        -5.5420   -0.6480    1.6930 hn        1 MOL      0.091585
    169 Ca1         1.4920    0.4400   -1.7180 Ca        1 MOL      1.766306
    170 O24         4.3470    1.3990   -1.4090 oh        1 MOL     -0.828717
    171 H77         4.4660    0.5410   -1.8150 ho        1 MOL      0.401113
    172 H78         4.3240    1.2200   -0.4680 ho        1 MOL      0.401113
    173 O25         1.5070    3.0520   -2.3870 oh        1 MOL     -0.828717
    174 H79         0.5840    3.3210   -2.4500 ho        1 MOL      0.401113
    175 H80         1.9850    3.7280   -2.8600 ho        1 MOL      0.401113
    176 O26         1.6990    1.2400   -4.5910 oh        1 MOL     -0.828717
    177 H81         1.4950    0.4300   -5.0590 ho        1 MOL      0.401113
    178 H82         1.7380    1.9120   -5.2650 ho        1 MOL      0.401113
@<TRIPOS>BOND
     1    1    2 1   
     2    1    4 1   
     3    1    5 1   
     4    1    6 1   
     5    2    3 2   
     6    2    7 1   
     7    7    8 1   
     8    7   15 1   
     9    8    9 1   
    10    8   11 1   
    11    8   16 1   
    12    9   10 2   
    13    9   19 1   
    14   11   12 1   
    15   11   17 1   
    16   11   18 1   
    17   12   13 1   
    18   12   14 1   
    19   19   20 1   
    20   19   24 1   
    21   20   21 1   
    22   20   23 1   
    23   20   25 1   
    24   21   22 2   
    25   21   29 1   
    26   23   26 1   
    27   23   27 1   
    28   23   28 1   
    29   29   30 1   
    30   29   37 1   
    31   30   31 1   
    32   30   33 1   
    33   30   38 1   
    34   31   32 2   
    35   31   41 1   
    36   33   34 1   
    37   33   39 1   
    38   33   40 1   
    39   34   35 1   
    40   34   36 1   
    41   41   42 1   
    42   41   45 1   
    43   42   43 1   
    44   42   46 1   
    45   42   47 1   
    46   43   44 2   
    47   43   48 1   
    48   48   49 1   
    49   48   56 1   
    50   49   50 1   
    51   49   52 1   
    52   49   57 1   
    53   50   51 2   
    54   50   62 1   
    55   52   53 1   
    56   52   58 1   
    57   52   59 1   
    58   53   54 1   
    59   53   55 2   
    60   54   60 1   
    61   54   61 1   
    62   62   63 1   
    63   62   66 1   
    64   63   64 1   
    65   63   67 1   
    66   63   68 1   
    67   64   65 2   
    68   64   69 1   
    69   69   70 1   
    70   69   76 1   
    71   70   71 1   
    72   70   73 1   
    73   70   77 1   
    74   71   72 2   
    75   71   83 1   
    76   73   74 1   
    77   73   75 1   
    78   73   78 1   
    79   74   80 1   
    80   74   81 1   
    81   74   82 1   
    82   75   79 1   
    83   83   84 1   
    84   83   91 1   
    85   84   85 1   
    86   84   87 1   
    87   84   92 1   
    88   85   86 2   
    89   85  102 1   
    90   87   88 1   
    91   87   89 1   
    92   87   93 1   
    93   88   90 1   
    94   88   94 1   
    95   88   95 1   
    96   89   96 1   
    97   89   97 1   
    98   89   98 1   
    99   90   99 1   
   100   90  100 1   
   101   90  101 1   
   102  102  103 1   
   103  102  110 1   
   104  103  104 1   
   105  103  106 1   
   106  103  111 1   
   107  104  105 2   
   108  104  114 1   
   109  106  107 1   
   110  106  112 1   
   111  106  113 1   
   112  107  108 1   
   113  107  109 1   
   114  114  115 1   
   115  114  125 1   
   116  115  116 1   
   117  115  118 1   
   118  115  126 1   
   119  116  117 2   
   120  116  134 1   
   121  118  119 1   
   122  118  127 1   
   123  118  128 1   
   124  119  120 ar  
   125  119  121 ar  
   126  120  122 ar  
   127  120  129 1   
   128  121  123 ar  
   129  121  130 1   
   130  122  124 ar  
   131  122  131 1   
   132  123  124 ar  
   133  123  132 1   
   134  124  133 1   
   135  134  135 1   
   136  134  140 1   
   137  135  136 1   
   138  135  138 1   
   139  135  141 1   
   140  136  137 2   
   141  136  148 1   
   142  138  139 1   
   143  138  142 1   
   144  138  143 1   
   145  139  140 1   
   146  139  144 1   
   147  139  145 1   
   148  140  146 1   
   149  140  147 1   
   150  148  149 1   
   151  148  157 1   
   152  149  150 1   
   153  149  152 1   
   154  149  158 1   
   155  150  151 2   
   156  150  163 1   
   157  152  153 1   
   158  152  159 1   
   159  152  160 1   
   160  153  154 1   
   161  153  161 1   
   162  153  162 1   
   163  154  155 1   
   164  154  156 1   
   165  163  164 1   
   166  163  168 1   
   167  164  165 1   
   168  164  166 1   
   169  164  167 1   
   170  170  171 1   
   171  170  172 1   
   172  173  174 1   
   173  173  175 1   
   174  176  177 1   
   175  176  178 1   
@<TRIPOS>SUBSTRUCTURE
     1 MOL         1 TEMP              0 ****  ****    0 ROOT
