@<TRIPOS>MOLECULE
MOL
  175   173     1     0     0
SMALL
resp


@<TRIPOS>ATOM
      1 C1          0.7090    3.5430    5.6570 c3        1 MOL     -0.448327
      2 C2          0.0390    3.4920    4.2950 c         1 MOL      0.709271
      3 O1          0.7870    3.7860    3.3530 o         1 MOL     -0.541087
      4 H1          0.0270    3.1490    6.4110 hc        1 MOL      0.110762
      5 H2          1.6170    2.9390    5.6380 hc        1 MOL      0.110762
      6 H3          0.9630    4.5750    5.8990 hc        1 MOL      0.110762
      7 N1         -1.2780    3.2080    4.2330 n         1 MOL     -0.600749
      8 C3         -1.9340    3.2100    2.9780 c3        1 MOL      0.081052
      9 C4         -1.9810    4.5560    2.1580 c         1 MOL      0.736320
     10 O2         -2.3620    5.5700    2.6640 o         1 MOL     -0.592489
     11 C5         -3.4090    2.8080    3.1190 c3        1 MOL     -0.268052
     12 C6         -4.0350    2.7040    1.7230 c         1 MOL      0.590636
     13 O3         -3.4260    1.9870    0.8450 o         1 MOL     -0.578356
     14 O4         -5.0140    3.4210    1.4100 o         1 MOL     -0.578356
     15 H4         -1.8590    2.8990    5.0050 hn        1 MOL      0.337067
     16 H5         -1.4770    2.4490    2.3490 h1        1 MOL      0.003839
     17 H6         -3.9450    3.6470    3.5700 hc        1 MOL      0.047934
     18 H7         -3.5680    1.8970    3.6980 hc        1 MOL      0.047934
     19 N2         -1.5310    4.5160    0.9000 n         1 MOL     -0.623497
     20 C7         -1.6720    5.5520   -0.1200 c3        1 MOL      0.348044
     21 C8         -2.5570    5.2580   -1.3200 c         1 MOL      0.365749
     22 O5         -2.6360    6.0910   -2.2170 o         1 MOL     -0.566615
     23 C9         -0.2410    5.6990   -0.6620 c3        1 MOL     -0.214120
     24 H8         -1.2290    3.6330    0.4970 hn        1 MOL      0.286071
     25 H9         -2.0100    6.5090    0.2880 h1        1 MOL      0.017883
     26 H10         0.0670    4.8340   -1.2470 hc        1 MOL      0.046938
     27 H11        -0.1640    6.6110   -1.2670 hc        1 MOL      0.046938
     28 H12         0.5160    5.7720    0.1190 hc        1 MOL      0.046938
     29 N3         -3.2270    4.0970   -1.4560 n         1 MOL     -0.257241
     30 C10        -4.0530    3.7620   -2.6100 c3        1 MOL      0.136918
     31 C11        -5.3270    2.9640   -2.4170 c         1 MOL      0.248615
     32 O6         -6.0140    2.7770   -3.4270 o         1 MOL     -0.510611
     33 C12        -3.1710    3.0310   -3.6770 c3        1 MOL     -0.363828
     34 C13        -3.2230    1.5080   -3.4810 c         1 MOL      0.788556
     35 O7         -2.9810    1.0630   -2.3350 o         1 MOL     -0.678523
     36 O8         -3.3560    0.7740   -4.4780 o         1 MOL     -0.678523
     37 H13        -2.9760    3.3180   -0.8670 hn        1 MOL      0.234053
     38 H14        -4.3330    4.6710   -3.1540 h1        1 MOL      0.084576
     39 H15        -2.1650    3.4060   -3.5090 hc        1 MOL      0.088028
     40 H16        -3.6280    3.0760   -4.6710 hc        1 MOL      0.088028
     41 N4         -5.5360    2.4590   -1.2000 n         1 MOL      0.050734
     42 C14        -6.8380    1.8570   -0.9130 c3        1 MOL     -0.111224
     43 C15        -7.0440    0.4340   -1.2680 c         1 MOL      0.474919
     44 O9         -8.1830   -0.0140   -0.9820 o         1 MOL     -0.615227
     45 H17        -4.8750    2.6150   -0.4470 hn        1 MOL     -0.089415
     46 H18        -7.5600    2.5050   -1.4110 h1        1 MOL      0.087326
     47 H19        -7.1010    2.0000    0.1350 h1        1 MOL      0.087326
     48 N5         -6.0610   -0.2770   -1.8290 n         1 MOL     -0.202972
     49 C16        -6.2100   -1.6740   -2.3520 c3        1 MOL      0.042373
     50 C17        -6.4410   -2.7600   -1.2490 c         1 MOL      0.394303
     51 O10        -6.7160   -3.8760   -1.6410 o         1 MOL     -0.511942
     52 C18        -5.1360   -2.0640   -3.2720 c3        1 MOL      0.051441
     53 C19        -3.7370   -2.2050   -2.7340 c         1 MOL      0.641975
     54 N6         -2.8080   -2.5870   -3.6020 n         1 MOL     -0.717876
     55 O11        -3.4800   -2.0420   -1.5720 o         1 MOL     -0.696824
     56 H20        -5.1790    0.1680   -2.0510 hn        1 MOL      0.079082
     57 H21        -7.1010   -1.5890   -2.9820 h1        1 MOL      0.087188
     58 H22        -5.0280   -1.4360   -4.1510 hc        1 MOL      0.005593
     59 H23        -5.4650   -3.0010   -3.7340 hc        1 MOL      0.005593
     60 H24        -3.0300   -2.6650   -4.5840 hn        1 MOL      0.353791
     61 H25        -1.8320   -2.5370   -3.3510 hn        1 MOL      0.353791
     62 N7         -6.4120   -2.4740    0.0850 n         1 MOL     -0.216215
     63 C20        -6.5870   -3.4210    1.1690 c3        1 MOL     -0.213831
     64 C21        -5.3150   -4.0570    1.7290 c         1 MOL      0.392566
     65 O12        -5.3520   -4.7770    2.7720 o         1 MOL     -0.571872
     66 H26        -6.3470   -1.4960    0.3450 hn        1 MOL      0.224494
     67 H27        -7.2610   -4.2100    0.8130 h1        1 MOL      0.125467
     68 H28        -7.1090   -2.9290    1.9930 h1        1 MOL      0.125467
     69 N8         -4.1580   -3.7750    1.1620 n         1 MOL     -0.020251
     70 C22        -2.8630   -4.4890    1.3720 c3        1 MOL     -0.311540
     71 C23        -1.6940   -3.5630    1.5470 c         1 MOL      0.582393
     72 O13        -1.7410   -2.4520    1.0200 o         1 MOL     -0.477931
     73 C24        -2.5280   -5.4890    0.1790 c3        1 MOL      0.549769
     74 C25        -3.5170   -6.6250    0.1980 c3        1 MOL     -0.542567
     75 O14        -2.5690   -4.8910   -1.0800 oh        1 MOL     -0.563670
     76 H29        -4.1900   -3.1610    0.3540 hn        1 MOL      0.182810
     77 H30        -2.9710   -5.0500    2.3010 h1        1 MOL      0.108071
     78 H31        -1.5030   -5.8300    0.3400 h1        1 MOL     -0.033214
     79 H32        -2.4250   -3.9600   -0.9260 ho        1 MOL      0.337905
     80 H33        -3.6710   -6.9790    1.2170 hc        1 MOL      0.131753
     81 H34        -4.5120   -6.2280    0.0330 hc        1 MOL      0.131753
     82 H35        -3.4070   -7.4770   -0.4750 hc        1 MOL      0.131753
     83 N9         -0.5660   -3.9380    2.1380 n         1 MOL     -0.525794
     84 C26         0.5590   -3.0100    2.1840 c3        1 MOL     -0.116098
     85 C27         1.2890   -3.2220    0.8580 c         1 MOL      0.631109
     86 O15         1.5540   -4.3740    0.5270 o         1 MOL     -0.592262
     87 C28         1.4240   -3.2210    3.4010 c3        1 MOL      0.166647
     88 C29         0.5920   -3.0620    4.6710 c3        1 MOL      0.054089
     89 C30         2.6230   -2.2440    3.3340 c3        1 MOL     -0.188682
     90 C31         1.3160   -2.7680    6.0240 c3        1 MOL     -0.264074
     91 H36        -0.4620   -4.8460    2.5760 hn        1 MOL      0.312490
     92 H37         0.2740   -1.9680    2.1940 h1        1 MOL      0.066985
     93 H38         1.9500   -4.1740    3.3900 hc        1 MOL     -0.006132
     94 H39        -0.0400   -3.9400    4.7830 hc        1 MOL     -0.002606
     95 H40        -0.0450   -2.1820    4.6560 hc        1 MOL     -0.002606
     96 H41         2.4200   -1.2150    3.6040 hc        1 MOL      0.029399
     97 H42         3.4180   -2.6880    3.9480 hc        1 MOL      0.029399
     98 H43         3.0920   -2.2250    2.3450 hc        1 MOL      0.029399
     99 H44         0.5720   -2.8270    6.8240 hc        1 MOL      0.062320
    100 H45         2.1300   -3.4740    6.1590 hc        1 MOL      0.062320
    101 H46         1.8070   -1.7940    6.0670 hc        1 MOL      0.062320
    102 N10         1.5200   -2.1220    0.1300 n         1 MOL     -0.285104
    103 C32         2.4600   -2.1050   -1.0480 c3        1 MOL      0.040905
    104 C33         3.9140   -1.5860   -0.7250 c         1 MOL      0.185524
    105 O16         4.1500   -1.0150    0.2890 o         1 MOL     -0.131105
    106 C34         1.8920   -1.1030   -2.0760 c3        1 MOL     -0.348564
    107 C35         0.4170   -1.4790   -2.4570 c         1 MOL      0.712625
    108 O17        -0.4990   -1.1090   -1.7360 o         1 MOL     -0.669088
    109 O18         0.1700   -1.9280   -3.5860 o         1 MOL     -0.669088
    110 H47         1.2710   -1.2240    0.5120 hn        1 MOL      0.225199
    111 H48         2.5830   -3.1450   -1.3390 h1        1 MOL      0.066676
    112 H49         2.5710   -1.2300   -2.9120 hc        1 MOL      0.099712
    113 H50         1.9730   -0.0670   -1.7550 hc        1 MOL      0.099712
    114 N11         4.8350   -1.8320   -1.6720 n         1 MOL     -0.337705
    115 C36         6.2380   -1.6560   -1.3970 c3        1 MOL      0.156850
    116 C37         6.6930   -0.1530   -1.1600 c         1 MOL      0.437543
    117 O19         7.4570    0.0490   -0.2160 o         1 MOL     -0.496355
    118 C38         7.0920   -2.2350   -2.5140 c3        1 MOL     -0.192021
    119 C39         8.6170   -2.0210   -2.2650 ca        1 MOL      0.081805
    120 C40         9.2670   -2.7070   -1.1910 ca        1 MOL     -0.210755
    121 C41         9.3080   -1.0570   -3.0160 ca        1 MOL     -0.210755
    122 C42        10.5840   -2.3480   -0.8890 ca        1 MOL     -0.037659
    123 C43        10.6320   -0.7570   -2.7660 ca        1 MOL     -0.037659
    124 C44        11.2490   -1.3780   -1.6730 ca        1 MOL     -0.168406
    125 H51         4.5160   -2.3730   -2.4530 hn        1 MOL      0.277500
    126 H52         6.3360   -2.2100   -0.4660 h1        1 MOL      0.068748
    127 H53         6.7870   -1.7760   -3.4550 hc        1 MOL      0.057530
    128 H54         6.8860   -3.3070   -2.4630 hc        1 MOL      0.057530
    129 H55         8.7700   -3.5080   -0.6550 ha        1 MOL      0.136189
    130 H56         8.8200   -0.5090   -3.8050 ha        1 MOL      0.136189
    131 H57        11.1070   -2.9520   -0.1550 ha        1 MOL      0.094056
    132 H58        11.1170   -0.0190   -3.3950 ha        1 MOL      0.094056
    133 H59        12.2590   -1.1140   -1.3830 ha        1 MOL      0.106080
    134 N12         6.1600    0.8970   -1.7970 n         1 MOL      0.002701
    135 C45         6.4600    2.2490   -1.4200 c3        1 MOL     -0.030849
    136 C46         5.7220    2.6710   -0.0500 c         1 MOL      0.384198
    137 O20         6.1340    3.6410    0.6530 o         1 MOL     -0.506615
    138 C47         6.0680    3.0730   -2.6250 c3        1 MOL     -0.205369
    139 C48         4.9990    2.2120   -3.3560 c3        1 MOL      0.045004
    140 C49         5.5900    0.8460   -3.1560 c3        1 MOL     -0.015030
    141 H60         7.5330    2.3690   -1.2590 h1        1 MOL      0.061802
    142 H61         5.6850    4.0500   -2.3420 hc        1 MOL      0.080046
    143 H62         6.8800    3.0870   -3.3680 hc        1 MOL      0.080046
    144 H63         3.9810    2.3630   -3.0040 hc        1 MOL      0.025278
    145 H64         5.0820    2.5310   -4.3980 hc        1 MOL      0.025278
    146 H65         4.7290    0.1990   -3.2860 h1        1 MOL      0.007246
    147 H66         6.3720    0.6670   -3.8910 h1        1 MOL      0.007246
    148 N13         4.6620    1.8930    0.2700 n         1 MOL     -0.215464
    149 C50         3.9630    2.0570    1.6360 c3        1 MOL     -0.080181
    150 C51         4.8190    1.3500    2.6810 c         1 MOL      0.473254
    151 O21         4.8930    1.8730    3.8040 o         1 MOL     -0.572668
    152 C52         2.5430    1.5180    1.5910 c3        1 MOL     -0.023786
    153 C53         1.6770    2.1030    0.4790 c3        1 MOL      0.217630
    154 C54         0.2300    1.5620    0.3820 c         1 MOL      0.480722
    155 O22        -0.5650    2.1550   -0.3590 o         1 MOL     -0.637508
    156 O23        -0.0190    0.4080    0.8520 o         1 MOL     -0.637508
    157 H67         4.4840    1.0650   -0.2820 hn        1 MOL      0.117220
    158 H68         3.9100    3.1040    1.9190 h1        1 MOL      0.128068
    159 H69         2.0910    1.8010    2.5400 hc        1 MOL      0.009740
    160 H70         2.5400    0.4280    1.5260 hc        1 MOL      0.009740
    161 H71         2.1260    1.7830   -0.4660 hc        1 MOL     -0.016983
    162 H72         1.8200    3.1800    0.3860 hc        1 MOL     -0.016983
    163 N14         5.5350    0.3060    2.3240 n         1 MOL     -0.060759
    164 C55         6.4200   -0.4450    3.2110 c3        1 MOL     -0.139140
    165 H73         5.9830   -1.4220    3.4180 h1        1 MOL      0.062885
    166 H74         7.3900   -0.5750    2.7330 h1        1 MOL      0.062885
    167 H75         6.5460    0.1010    4.1470 h1        1 MOL      0.062885
    168 H76         5.3460   -0.0970    1.4210 hn        1 MOL     -0.022609
    169 Ca1        -2.2590   -0.0920   -0.1130 Ca        1 MOL      1.684622
    170 O24        -4.0620   -0.9640    1.5980 oh        1 MOL     -0.843080
    171 H77        -3.6510   -1.1550    2.4390 ho        1 MOL      0.408592
    172 H78        -4.8660   -0.5090    1.8280 ho        1 MOL      0.408592
    173 O25        -1.7540   -0.1590    2.9080 oh        1 MOL     -0.843080
    174 H79        -1.9900    0.2150    3.7590 ho        1 MOL      0.408592
    175 H80        -0.8300    0.0670    2.7960 ho        1 MOL      0.408592
@<TRIPOS>BOND
     1    1    2 1   
     2    1    4 1   
     3    1    5 1   
     4    1    6 1   
     5    2    3 2   
     6    2    7 1   
     7    7    8 1   
     8    7   15 1   
     9    8    9 1   
    10    8   11 1   
    11    8   16 1   
    12    9   10 2   
    13    9   19 1   
    14   11   12 1   
    15   11   17 1   
    16   11   18 1   
    17   12   13 1   
    18   12   14 1   
    19   19   20 1   
    20   19   24 1   
    21   20   21 1   
    22   20   23 1   
    23   20   25 1   
    24   21   22 2   
    25   21   29 1   
    26   23   26 1   
    27   23   27 1   
    28   23   28 1   
    29   29   30 1   
    30   29   37 1   
    31   30   31 1   
    32   30   33 1   
    33   30   38 1   
    34   31   32 2   
    35   31   41 1   
    36   33   34 1   
    37   33   39 1   
    38   33   40 1   
    39   34   35 1   
    40   34   36 1   
    41   41   42 1   
    42   41   45 1   
    43   42   43 1   
    44   42   46 1   
    45   42   47 1   
    46   43   44 2   
    47   43   48 1   
    48   48   49 1   
    49   48   56 1   
    50   49   50 1   
    51   49   52 1   
    52   49   57 1   
    53   50   51 2   
    54   50   62 1   
    55   52   53 1   
    56   52   58 1   
    57   52   59 1   
    58   53   54 1   
    59   53   55 2   
    60   54   60 1   
    61   54   61 1   
    62   62   63 1   
    63   62   66 1   
    64   63   64 1   
    65   63   67 1   
    66   63   68 1   
    67   64   65 2   
    68   64   69 1   
    69   69   70 1   
    70   69   76 1   
    71   70   71 1   
    72   70   73 1   
    73   70   77 1   
    74   71   72 2   
    75   71   83 1   
    76   73   74 1   
    77   73   75 1   
    78   73   78 1   
    79   74   80 1   
    80   74   81 1   
    81   74   82 1   
    82   75   79 1   
    83   83   84 1   
    84   83   91 1   
    85   84   85 1   
    86   84   87 1   
    87   84   92 1   
    88   85   86 2   
    89   85  102 1   
    90   87   88 1   
    91   87   89 1   
    92   87   93 1   
    93   88   90 1   
    94   88   94 1   
    95   88   95 1   
    96   89   96 1   
    97   89   97 1   
    98   89   98 1   
    99   90   99 1   
   100   90  100 1   
   101   90  101 1   
   102  102  103 1   
   103  102  110 1   
   104  103  104 1   
   105  103  106 1   
   106  103  111 1   
   107  104  105 2   
   108  104  114 1   
   109  106  107 1   
   110  106  112 1   
   111  106  113 1   
   112  107  108 1   
   113  107  109 1   
   114  114  115 1   
   115  114  125 1   
   116  115  116 1   
   117  115  118 1   
   118  115  126 1   
   119  116  117 2   
   120  116  134 1   
   121  118  119 1   
   122  118  127 1   
   123  118  128 1   
   124  119  120 ar  
   125  119  121 ar  
   126  120  122 ar  
   127  120  129 1   
   128  121  123 ar  
   129  121  130 1   
   130  122  124 ar  
   131  122  131 1   
   132  123  124 ar  
   133  123  132 1   
   134  124  133 1   
   135  134  135 1   
   136  134  140 1   
   137  135  136 1   
   138  135  138 1   
   139  135  141 1   
   140  136  137 2   
   141  136  148 1   
   142  138  139 1   
   143  138  142 1   
   144  138  143 1   
   145  139  140 1   
   146  139  144 1   
   147  139  145 1   
   148  140  146 1   
   149  140  147 1   
   150  148  149 1   
   151  148  157 1   
   152  149  150 1   
   153  149  152 1   
   154  149  158 1   
   155  150  151 2   
   156  150  163 1   
   157  152  153 1   
   158  152  159 1   
   159  152  160 1   
   160  153  154 1   
   161  153  161 1   
   162  153  162 1   
   163  154  155 1   
   164  154  156 1   
   165  163  164 1   
   166  163  168 1   
   167  164  165 1   
   168  164  166 1   
   169  164  167 1   
   170  170  171 1   
   171  170  172 1   
   172  173  174 1   
   173  173  175 1   
@<TRIPOS>SUBSTRUCTURE
     1 MOL         1 TEMP              0 ****  ****    0 ROOT
