@<TRIPOS>MOLECULE
MOL
  189   185     1     0     0
SMALL
resp


@<TRIPOS>ATOM
      1 C1         -0.2590    1.1840    6.1860 c3        1 MOL     -0.399739
      2 C2         -0.6850    1.0940    4.6770 c         1 MOL      0.693928
      3 O1          0.1090    1.2190    3.7800 o         1 MOL     -0.551321
      4 H1         -1.1190    0.9670    6.8200 hc        1 MOL      0.110610
      5 H2          0.5310    0.4600    6.3860 hc        1 MOL      0.110610
      6 H3          0.1060    2.1880    6.4020 hc        1 MOL      0.110610
      7 N1         -2.0690    1.1400    4.4100 n         1 MOL     -0.717282
      8 C3         -2.5430    1.1970    3.0570 c3        1 MOL      0.455499
      9 C4         -3.0620    2.5650    2.6970 c         1 MOL      0.332035
     10 O2         -4.1900    2.9800    3.0440 o         1 MOL     -0.503124
     11 C5         -3.5750    0.0750    2.7740 c3        1 MOL     -0.305805
     12 C6         -4.2720    0.2030    1.4690 c         1 MOL      0.827910
     13 O3         -5.5020    0.0330    1.4630 o         1 MOL     -0.645168
     14 O4         -3.5700    0.5240    0.4770 o         1 MOL     -0.645168
     15 H4         -2.7130    1.0560    5.1770 hn        1 MOL      0.361207
     16 H5         -1.7770    1.0310    2.2990 h1        1 MOL     -0.038387
     17 H6         -4.3110    0.1020    3.5800 hc        1 MOL      0.029041
     18 H7         -3.0650   -0.8910    2.7320 hc        1 MOL      0.029041
     19 N2         -2.2000    3.2640    1.8950 n         1 MOL     -0.260356
     20 C7         -2.3010    4.7680    1.6700 c3        1 MOL      0.082099
     21 C8         -3.0810    5.1890    0.3980 c         1 MOL      0.442767
     22 O5         -3.2760    6.3830    0.0690 o         1 MOL     -0.568467
     23 C9         -0.9180    5.3720    1.8520 c3        1 MOL     -0.047952
     24 C10         0.2570    4.8690    1.0730 c3        1 MOL      0.206488
     25 C11         1.5930    5.4100    1.4980 c3        1 MOL     -0.056725
     26 C12         1.7710    6.9240    1.0850 c3        1 MOL     -0.003907
     27 N3          3.0890    7.3450    1.4470 n4        1 MOL     -0.534690
     28 H8         -1.3550    2.8120    1.5730 hn        1 MOL      0.226350
     29 H9         -2.9000    5.2260    2.4590 h1        1 MOL      0.069060
     30 H10        -0.7500    5.1550    2.9030 hc        1 MOL     -0.014237
     31 H11        -0.9550    6.4530    1.7300 hc        1 MOL     -0.014237
     32 H12         0.1610    5.2210    0.0420 hc        1 MOL     -0.021909
     33 H13         0.3240    3.7840    1.0660 hc        1 MOL     -0.021909
     34 H14         2.3970    4.8880    0.9710 hc        1 MOL      0.041779
     35 H15         1.7800    5.1510    2.5420 hc        1 MOL      0.041779
     36 H16         1.0950    7.5680    1.6490 hx        1 MOL      0.104157
     37 H17         1.5460    6.9680    0.0260 hx        1 MOL      0.104157
     38 H18         3.7570    6.6530    1.1230 hn        1 MOL      0.379697
     39 H19         3.3610    8.1560    0.9010 hn        1 MOL      0.379697
     40 H20         3.0140    7.5040    2.4350 hn        1 MOL      0.379697
     41 N4         -3.5560    4.1730   -0.2880 n         1 MOL     -0.324343
     42 C13        -4.3380    4.4100   -1.5430 c3        1 MOL      0.092331
     43 C14        -5.6150    3.5720   -1.6180 c         1 MOL      0.443557
     44 O6         -6.2660    3.5660   -2.6440 o         1 MOL     -0.495084
     45 C15        -3.3850    4.3230   -2.7450 c3        1 MOL     -0.294684
     46 C16        -2.5860    2.9960   -2.9150 c         1 MOL      0.821124
     47 O7         -2.0950    2.7470   -4.0470 o         1 MOL     -0.679386
     48 O8         -2.3410    2.1660   -2.0420 o         1 MOL     -0.679386
     49 H21        -3.3330    3.2250   -0.0140 hn        1 MOL      0.138600
     50 H22        -4.7250    5.4240   -1.4710 h1        1 MOL      0.090494
     51 H23        -2.6430    5.0940   -2.5310 hc        1 MOL      0.074954
     52 H24        -3.9900    4.4880   -3.6270 hc        1 MOL      0.074954
     53 N5         -6.0080    2.9950   -0.5100 n         1 MOL     -0.245172
     54 C17        -7.3380    2.3980   -0.2920 c3        1 MOL     -0.303181
     55 C18        -7.7060    1.2380   -1.2790 c         1 MOL      0.535734
     56 O9         -8.8000    1.0880   -1.7820 o         1 MOL     -0.561095
     57 H25        -5.3530    3.0820    0.2580 hn        1 MOL      0.229162
     58 H26        -8.0880    3.1430   -0.5540 h1        1 MOL      0.142993
     59 H27        -7.4290    2.0980    0.7570 h1        1 MOL      0.142993
     60 N6         -6.7050    0.3400   -1.4280 n         1 MOL     -0.149032
     61 C19        -6.9090   -0.8980   -2.2550 c3        1 MOL      0.075073
     62 C20        -7.0000   -2.1780   -1.3250 c         1 MOL      0.250538
     63 O10        -7.4020   -3.2070   -1.9390 o         1 MOL     -0.516183
     64 C21        -5.9140   -1.1660   -3.3260 c3        1 MOL     -0.245701
     65 C22        -4.4740   -0.9930   -2.8190 c         1 MOL      0.718441
     66 O11        -4.2070   -1.3390   -1.6440 o         1 MOL     -0.693994
     67 O12        -3.6130   -0.3990   -3.4730 o         1 MOL     -0.693994
     68 H28        -5.8810    0.4630   -0.8590 hn        1 MOL      0.060163
     69 H29        -7.8630   -0.8270   -2.7710 h1        1 MOL      0.115088
     70 H30        -6.2020   -0.4970   -4.1340 hc        1 MOL      0.068884
     71 H31        -6.0070   -2.1860   -3.7000 hc        1 MOL      0.068884
     72 N7         -6.7190   -2.1110   -0.0230 n         1 MOL     -0.081585
     73 C23        -6.6570   -3.1840    0.9000 c3        1 MOL     -0.162980
     74 C24        -5.5380   -4.1870    0.6750 c         1 MOL      0.498571
     75 O13        -5.6400   -5.3420    1.1670 o         1 MOL     -0.560113
     76 H32        -6.4500   -1.1870    0.2760 hn        1 MOL      0.139439
     77 H33        -7.5700   -3.7650    0.7200 h1        1 MOL      0.100650
     78 H34        -6.7830   -2.8240    1.9160 h1        1 MOL      0.100650
     79 N8         -4.3760   -3.7070    0.2000 n         1 MOL     -0.235476
     80 C25        -3.1040   -4.4450    0.3230 c3        1 MOL     -0.018749
     81 C26        -1.9290   -3.5340    0.6640 c         1 MOL      0.571631
     82 O14        -1.8780   -2.2910    0.3720 o         1 MOL     -0.641713
     83 C27        -2.6090   -5.3260   -0.8530 c3        1 MOL      0.385978
     84 C28        -3.3290   -6.6440   -0.8520 c3        1 MOL     -0.398324
     85 O15        -2.7110   -4.7450   -2.1330 oh        1 MOL     -0.664831
     86 H35        -4.4140   -2.7410   -0.0650 hn        1 MOL      0.187727
     87 H36        -3.1940   -4.9990    1.2580 h1        1 MOL      0.051489
     88 H37        -1.6170   -5.6550   -0.5360 h1        1 MOL      0.031733
     89 H38        -3.6230   -4.6470   -2.4340 ho        1 MOL      0.453649
     90 H39        -2.8600   -7.2400   -1.6210 hc        1 MOL      0.099730
     91 H40        -3.1900   -7.1900    0.0840 hc        1 MOL      0.099730
     92 H41        -4.4040   -6.4900   -0.9940 hc        1 MOL      0.099730
     93 N9         -0.8230   -4.0440    1.2030 n         1 MOL     -0.370509
     94 C29         0.4700   -3.3780    1.4970 c3        1 MOL      0.041393
     95 C30         1.5410   -3.7720    0.4820 c         1 MOL      0.332159
     96 O16         1.7600   -4.9450    0.1730 o         1 MOL     -0.545589
     97 C31         0.9740   -3.5880    2.9840 c3        1 MOL      0.252477
     98 C32        -0.0960   -3.2740    3.9640 c3        1 MOL     -0.002238
     99 C33         2.2750   -2.8310    3.3340 c3        1 MOL     -0.509954
    100 C34         0.1140   -3.9930    5.3300 c3        1 MOL     -0.146260
    101 H42        -0.9010   -5.0320    1.4140 hn        1 MOL      0.229663
    102 H43         0.2660   -2.3310    1.2910 h1        1 MOL      0.042439
    103 H44         1.1380   -4.6660    3.0300 hc        1 MOL     -0.021566
    104 H45        -1.0640   -3.5580    3.5620 hc        1 MOL      0.006647
    105 H46        -0.0290   -2.2060    4.1640 hc        1 MOL      0.006647
    106 H47         1.9780   -1.7780    3.4190 hc        1 MOL      0.119312
    107 H48         2.5270   -3.0890    4.3510 hc        1 MOL      0.119312
    108 H49         3.1540   -3.0630    2.7320 hc        1 MOL      0.119312
    109 H50         1.0200   -3.6810    5.8480 hc        1 MOL      0.036362
    110 H51        -0.6000   -3.6960    6.0940 hc        1 MOL      0.036362
    111 H52         0.1060   -5.0760    5.2420 hc        1 MOL      0.036362
    112 N10         2.1700   -2.7450   -0.0570 n         1 MOL     -0.082050
    113 C35         3.2650   -2.8900   -1.1080 c3        1 MOL     -0.090516
    114 C36         4.6250   -2.5060   -0.5070 c         1 MOL      0.467992
    115 O17         4.6690   -2.0130    0.6060 o         1 MOL     -0.369287
    116 C37         2.8850   -2.1220   -2.4100 c3        1 MOL      0.369901
    117 C38         1.7380   -2.8370   -3.0790 c3        1 MOL     -0.258587
    118 O18         2.5600   -0.7910   -2.0960 oh        1 MOL     -0.665865
    119 H53         1.8660   -1.7920    0.1000 hn        1 MOL      0.271131
    120 H54         3.3540   -3.9230   -1.4670 h1        1 MOL      0.067231
    121 H55         3.7870   -2.1140   -3.0250 h1        1 MOL     -0.019735
    122 H56         1.6830   -0.7250   -1.7110 ho        1 MOL      0.383042
    123 H57         1.4230   -2.3900   -4.0140 hc        1 MOL      0.062172
    124 H58         2.1470   -3.7910   -3.4200 hc        1 MOL      0.062172
    125 H59         0.8890   -2.9390   -2.3990 hc        1 MOL      0.062172
    126 N11         5.7200   -2.7230   -1.3030 n         1 MOL     -0.435191
    127 C39         7.1100   -2.6620   -0.8160 c3        1 MOL     -0.165907
    128 C40         7.4640   -1.2270   -0.2050 c         1 MOL      0.283953
    129 O19         8.1080   -1.1380    0.8430 o         1 MOL     -0.451569
    130 C41         8.0260   -2.9990   -1.9430 c3        1 MOL      0.472705
    131 C42         9.4710   -3.0120   -1.4070 c3        1 MOL     -0.430135
    132 O20         7.6860   -4.2310   -2.5520 oh        1 MOL     -0.591674
    133 H60         5.5540   -2.8630   -2.2890 hn        1 MOL      0.239284
    134 H61         7.2140   -3.4420   -0.0700 h1        1 MOL      0.171436
    135 H62         7.9750   -2.1720   -2.6540 h1        1 MOL     -0.073486
    136 H63         6.7680   -4.1950   -2.8410 ho        1 MOL      0.375717
    137 H64         9.7260   -2.0630   -0.9260 hc        1 MOL      0.129175
    138 H65         9.6330   -3.8090   -0.6860 hc        1 MOL      0.129175
    139 H66        10.0660   -3.1610   -2.3140 hc        1 MOL      0.129175
    140 N12         6.9810   -0.1190   -0.7950 n         1 MOL     -0.138810
    141 C43         7.0860    1.2150   -0.3060 c3        1 MOL      0.015065
    142 C44         6.2390    1.5720    0.8760 c         1 MOL      0.350906
    143 O21         6.7070    2.2630    1.7970 o         1 MOL     -0.502547
    144 C45         6.7980    2.2480   -1.4210 c3        1 MOL     -0.350046
    145 C46         7.8590    2.0280   -2.6010 c3        1 MOL     -0.009308
    146 C47         7.3390    2.8520   -3.7490 c3        1 MOL      0.034272
    147 C48         8.3870    2.6680   -4.8450 c3        1 MOL     -0.151699
    148 N13         9.4710    3.7520   -4.8050 n4        1 MOL     -0.159763
    149 H67         6.4480   -0.3230   -1.6340 hn        1 MOL      0.217367
    150 H68         8.0950    1.1750    0.1120 h1        1 MOL      0.102834
    151 H69         6.9420    3.2390   -0.9970 hc        1 MOL      0.124942
    152 H70         5.8110    2.0910   -1.8440 hc        1 MOL      0.124942
    153 H71         8.0770    0.9900   -2.8760 hc        1 MOL      0.034326
    154 H72         8.8250    2.3840   -2.2460 hc        1 MOL      0.034326
    155 H73         7.0990    3.9000   -3.5650 hc        1 MOL      0.056439
    156 H74         6.3740    2.5020   -4.1360 hc        1 MOL      0.056439
    157 H75         7.8250    2.7310   -5.7800 hx        1 MOL      0.123827
    158 H76         8.8820    1.7270   -4.6020 hx        1 MOL      0.123827
    159 H77        10.1080    3.6190   -5.5790 hn        1 MOL      0.222431
    160 H78         9.0670    4.6590   -4.9870 hn        1 MOL      0.222431
    161 H79        10.0780    3.7760   -4.0040 hn        1 MOL      0.222431
    162 N14         4.9880    1.0960    0.8980 n         1 MOL     -0.202804
    163 C49         4.0730    1.2120    2.0190 c3        1 MOL     -0.150161
    164 C50         4.6000    0.4190    3.2880 c         1 MOL      0.471297
    165 O22         4.4300    0.8440    4.4170 o         1 MOL     -0.540710
    166 C51         2.6360    0.8790    1.5790 c3        1 MOL      0.044004
    167 C52         2.0370    1.4820    0.2910 c3        1 MOL     -0.099798
    168 C53         0.6850    0.7270    0.0640 c         1 MOL      0.919424
    169 O23         0.5730   -0.3930   -0.4090 o         1 MOL     -0.790807
    170 O24        -0.3580    1.3730    0.1310 o         1 MOL     -0.790807
    171 H80         4.6370    0.5240    0.1480 hn        1 MOL      0.179410
    172 H81         4.0910    2.2430    2.3940 h1        1 MOL      0.072398
    173 H82         1.9980    1.0760    2.4350 hc        1 MOL      0.016362
    174 H83         2.5960   -0.2080    1.5150 hc        1 MOL      0.016362
    175 H84         2.6400    1.2870   -0.5950 hc        1 MOL     -0.009588
    176 H85         1.9160    2.5730    0.2320 hc        1 MOL     -0.009588
    177 N15         5.3520   -0.6600    3.0870 n         1 MOL     -0.009865
    178 C54         6.0260   -1.3840    4.0610 c3        1 MOL     -0.242573
    179 H86         5.4080   -1.4500    4.9560 h1        1 MOL      0.082810
    180 H87         6.2350   -2.3870    3.6890 h1        1 MOL      0.082810
    181 H88         6.9640   -0.8820    4.3040 h1        1 MOL      0.082810
    182 H89         5.3920   -1.0910    2.1790 hn        1 MOL      0.158031
    183 Ca1        -1.9550   -0.2380   -1.2250 Ca        1 MOL      1.734748
    184 O25        -1.5870   -2.3400   -2.8450 oh        1 MOL     -0.845116
    185 H90        -1.7170   -3.2090   -2.4630 ho        1 MOL      0.402392
    186 H91        -1.3120   -2.5240   -3.7490 ho        1 MOL      0.402392
    187 O26        -0.7200    0.4230   -3.4310 oh        1 MOL     -0.845116
    188 H92        -1.4230    1.0160   -3.6810 ho        1 MOL      0.402392
    189 H93        -0.6430   -0.1730   -4.1790 ho        1 MOL      0.402392
@<TRIPOS>BOND
     1    1    2 1   
     2    1    4 1   
     3    1    5 1   
     4    1    6 1   
     5    2    3 2   
     6    2    7 1   
     7    7    8 1   
     8    7   15 1   
     9    8    9 1   
    10    8   11 1   
    11    8   16 1   
    12    9   10 2   
    13    9   19 1   
    14   11   12 1   
    15   11   17 1   
    16   11   18 1   
    17   12   13 1   
    18   12   14 1   
    19   19   20 1   
    20   19   28 1   
    21   20   21 1   
    22   20   23 1   
    23   20   29 1   
    24   21   22 2   
    25   21   41 1   
    26   23   24 1   
    27   23   30 1   
    28   23   31 1   
    29   24   25 1   
    30   24   32 1   
    31   24   33 1   
    32   25   26 1   
    33   25   34 1   
    34   25   35 1   
    35   26   27 1   
    36   26   36 1   
    37   26   37 1   
    38   27   38 1   
    39   27   39 1   
    40   27   40 1   
    41   41   42 1   
    42   41   49 1   
    43   42   43 1   
    44   42   45 1   
    45   42   50 1   
    46   43   44 2   
    47   43   53 1   
    48   45   46 1   
    49   45   51 1   
    50   45   52 1   
    51   46   47 1   
    52   46   48 1   
    53   53   54 1   
    54   53   57 1   
    55   54   55 1   
    56   54   58 1   
    57   54   59 1   
    58   55   56 2   
    59   55   60 1   
    60   60   61 1   
    61   60   68 1   
    62   61   62 1   
    63   61   64 1   
    64   61   69 1   
    65   62   63 2   
    66   62   72 1   
    67   64   65 1   
    68   64   70 1   
    69   64   71 1   
    70   65   66 1   
    71   65   67 1   
    72   72   73 1   
    73   72   76 1   
    74   73   74 1   
    75   73   77 1   
    76   73   78 1   
    77   74   75 2   
    78   74   79 1   
    79   79   80 1   
    80   79   86 1   
    81   80   81 1   
    82   80   83 1   
    83   80   87 1   
    84   81   82 2   
    85   81   93 1   
    86   83   84 1   
    87   83   85 1   
    88   83   88 1   
    89   84   90 1   
    90   84   91 1   
    91   84   92 1   
    92   85   89 1   
    93   93   94 1   
    94   93  101 1   
    95   94   95 1   
    96   94   97 1   
    97   94  102 1   
    98   95   96 2   
    99   95  112 1   
   100   97   98 1   
   101   97   99 1   
   102   97  103 1   
   103   98  100 1   
   104   98  104 1   
   105   98  105 1   
   106   99  106 1   
   107   99  107 1   
   108   99  108 1   
   109  100  109 1   
   110  100  110 1   
   111  100  111 1   
   112  112  113 1   
   113  112  119 1   
   114  113  114 1   
   115  113  116 1   
   116  113  120 1   
   117  114  115 2   
   118  114  126 1   
   119  116  117 1   
   120  116  118 1   
   121  116  121 1   
   122  117  123 1   
   123  117  124 1   
   124  117  125 1   
   125  118  122 1   
   126  126  127 1   
   127  126  133 1   
   128  127  128 1   
   129  127  130 1   
   130  127  134 1   
   131  128  129 2   
   132  128  140 1   
   133  130  131 1   
   134  130  132 1   
   135  130  135 1   
   136  131  137 1   
   137  131  138 1   
   138  131  139 1   
   139  132  136 1   
   140  140  141 1   
   141  140  149 1   
   142  141  142 1   
   143  141  144 1   
   144  141  150 1   
   145  142  143 2   
   146  142  162 1   
   147  144  145 1   
   148  144  151 1   
   149  144  152 1   
   150  145  146 1   
   151  145  153 1   
   152  145  154 1   
   153  146  147 1   
   154  146  155 1   
   155  146  156 1   
   156  147  148 1   
   157  147  157 1   
   158  147  158 1   
   159  148  159 1   
   160  148  160 1   
   161  148  161 1   
   162  162  163 1   
   163  162  171 1   
   164  163  164 1   
   165  163  166 1   
   166  163  172 1   
   167  164  165 2   
   168  164  177 1   
   169  166  167 1   
   170  166  173 1   
   171  166  174 1   
   172  167  168 1   
   173  167  175 1   
   174  167  176 1   
   175  168  169 1   
   176  168  170 1   
   177  177  178 1   
   178  177  182 1   
   179  178  179 1   
   180  178  180 1   
   181  178  181 1   
   182  184  185 1   
   183  184  186 1   
   184  187  188 1   
   185  187  189 1   
@<TRIPOS>SUBSTRUCTURE
     1 MOL         1 TEMP              0 ****  ****    0 ROOT
