@<TRIPOS>MOLECULE
MOL
  189   185     1     0     0
SMALL
resp


@<TRIPOS>ATOM
      1 C1         -0.3420    1.4370    6.4980 c3        1 MOL     -0.267640
      2 C2         -0.5910    1.5130    4.9890 c         1 MOL      0.702900
      3 O1          0.3180    1.9260    4.2340 o         1 MOL     -0.615133
      4 H1          0.5920    0.9080    6.6850 hc        1 MOL      0.065838
      5 H2         -0.2760    2.4450    6.9070 hc        1 MOL      0.065838
      6 H3         -1.1640    0.9030    6.9760 hc        1 MOL      0.065838
      7 N1         -1.7750    1.1470    4.5680 n         1 MOL     -0.498290
      8 C3         -2.2440    1.1460    3.1960 c3        1 MOL     -0.159544
      9 C4         -2.6470    2.5910    2.6440 c         1 MOL      0.700600
     10 O2         -3.5050    3.3290    3.1030 o         1 MOL     -0.559899
     11 C5         -3.4240    0.1910    3.0520 c3        1 MOL     -0.308214
     12 C6         -4.0400    0.1370    1.5550 c         1 MOL      0.820163
     13 O3         -5.1420   -0.3610    1.3310 o         1 MOL     -0.724241
     14 O4         -3.2840    0.6050    0.6880 o         1 MOL     -0.724241
     15 H4         -2.4380    0.8970    5.2900 hn        1 MOL      0.336349
     16 H5         -1.5050    0.7530    2.4960 h1        1 MOL      0.144153
     17 H6         -4.2290    0.6860    3.6060 hc        1 MOL      0.075347
     18 H7         -3.3470   -0.8270    3.4480 hc        1 MOL      0.075347
     19 N2         -1.7860    3.0550    1.7240 n         1 MOL     -0.318457
     20 C7         -1.6440    4.4590    1.3600 c3        1 MOL     -0.118242
     21 C8         -2.7490    4.9380    0.4690 c         1 MOL      0.475183
     22 O5         -3.2270    6.0620    0.5890 o         1 MOL     -0.584941
     23 C9         -0.2090    4.5960    0.6860 c3        1 MOL      0.049077
     24 C10         0.3760    5.9740    0.9240 c3        1 MOL      0.040111
     25 C11         1.6630    6.1500    0.1200 c3        1 MOL     -0.222821
     26 C12         2.1750    7.5810    0.4270 c3        1 MOL      0.142691
     27 N3          3.3570    7.9190   -0.3740 n4        1 MOL     -0.285097
     28 H8         -1.1000    2.4120    1.3430 hn        1 MOL      0.178908
     29 H9         -1.6850    5.0720    2.2620 h1        1 MOL      0.090402
     30 H10        -0.3650    4.4760   -0.3780 hc        1 MOL      0.066713
     31 H11         0.4860    3.8540    1.0740 hc        1 MOL      0.066713
     32 H12         0.5650    6.1580    1.9870 hc        1 MOL      0.015202
     33 H13        -0.3990    6.7040    0.7170 hc        1 MOL      0.015202
     34 H14         1.5170    5.9560   -0.9480 hc        1 MOL      0.077129
     35 H15         2.4020    5.4940    0.5970 hc        1 MOL      0.077129
     36 H16         2.4720    7.7710    1.4500 hx        1 MOL      0.062145
     37 H17         1.4370    8.3470    0.2100 hx        1 MOL      0.062145
     38 H18         3.2010    8.1140   -1.3540 hn        1 MOL      0.296579
     39 H19         3.8420    8.7550   -0.0760 hn        1 MOL      0.296579
     40 H20         4.0170    7.1520   -0.3300 hn        1 MOL      0.296579
     41 N4         -3.1510    4.1310   -0.4720 n         1 MOL     -0.102240
     42 C13        -4.1120    4.4440   -1.5750 c3        1 MOL      0.084272
     43 C14        -5.2750    3.4400   -1.5880 c         1 MOL      0.571189
     44 O6         -5.8950    3.3200   -2.6270 o         1 MOL     -0.538953
     45 C15        -3.2420    4.4290   -2.9240 c3        1 MOL     -0.333767
     46 C16        -2.4710    3.0870   -3.1290 c         1 MOL      0.898205
     47 O7         -2.7060    2.1170   -2.3800 o         1 MOL     -0.742537
     48 O8         -1.5680    3.0170   -4.0710 o         1 MOL     -0.742537
     49 H21        -2.6620    3.2580   -0.6280 hn        1 MOL     -0.002611
     50 H22        -4.5530    5.4170   -1.3710 h1        1 MOL      0.062425
     51 H23        -2.5110    5.2370   -2.8470 hc        1 MOL      0.067226
     52 H24        -3.8800    4.5420   -3.7910 hc        1 MOL      0.067226
     53 N5         -5.5120    2.7560   -0.4810 n         1 MOL     -0.492910
     54 C17        -6.8690    2.2840   -0.1570 c3        1 MOL      0.046264
     55 C18        -7.5080    1.0800   -0.9670 c         1 MOL      0.350810
     56 O9         -8.7160    0.9640   -0.9900 o         1 MOL     -0.557722
     57 H25        -4.8540    2.6220    0.2750 hn        1 MOL      0.269483
     58 H26        -7.5090    3.1690   -0.0740 h1        1 MOL      0.065949
     59 H27        -6.9410    1.9220    0.8700 h1        1 MOL      0.065949
     60 N6         -6.7230    0.3560   -1.6930 n         1 MOL     -0.090939
     61 C19        -6.9830   -0.8680   -2.5300 c3        1 MOL     -0.021413
     62 C20        -7.1500   -2.1590   -1.6490 c         1 MOL      0.386793
     63 O10        -7.7930   -3.1140   -2.0990 o         1 MOL     -0.538915
     64 C21        -5.9210   -0.9550   -3.5880 c3        1 MOL     -0.245074
     65 C22        -4.4700   -1.1270   -3.1690 c         1 MOL      0.719853
     66 O11        -4.1490   -1.5670   -2.0610 o         1 MOL     -0.664212
     67 O12        -3.5790   -0.5290   -3.7860 o         1 MOL     -0.664212
     68 H28        -5.7240    0.5380   -1.6430 hn        1 MOL      0.161197
     69 H29        -7.8880   -0.6380   -3.0890 h1        1 MOL      0.119513
     70 H30        -6.0060   -0.0820   -4.2310 hc        1 MOL      0.077012
     71 H31        -6.3460   -1.7830   -4.1500 hc        1 MOL      0.077012
     72 N7         -6.7610   -2.1260   -0.3740 n         1 MOL     -0.117776
     73 C23        -6.9400   -3.2320    0.5780 c3        1 MOL     -0.215023
     74 C24        -5.7550   -4.1680    0.6470 c         1 MOL      0.589482
     75 O13        -5.9690   -5.2460    1.2280 o         1 MOL     -0.584129
     76 H32        -6.2500   -1.2960   -0.0970 hn        1 MOL      0.218765
     77 H33        -7.7910   -3.8340    0.2290 h1        1 MOL      0.115514
     78 H34        -7.1410   -2.8180    1.5740 h1        1 MOL      0.115514
     79 N8         -4.5510   -3.8560    0.1360 n         1 MOL     -0.239735
     80 C25        -3.2660   -4.5820    0.4790 c3        1 MOL     -0.169018
     81 C26        -2.1340   -3.5610    0.5920 c         1 MOL      0.717040
     82 O14        -2.1370   -2.4640    0.0360 o         1 MOL     -0.644737
     83 C27        -2.8110   -5.5140   -0.6500 c3        1 MOL      0.309632
     84 C28        -3.7400   -6.6770   -0.7130 c3        1 MOL     -0.360971
     85 O15        -2.9760   -4.9420   -1.9460 oh        1 MOL     -0.581060
     86 H35        -4.4650   -3.0110   -0.4240 hn        1 MOL      0.154901
     87 H36        -3.3180   -5.0600    1.4540 h1        1 MOL      0.112772
     88 H37        -1.7690   -5.8220   -0.5550 h1        1 MOL      0.064326
     89 H38        -3.9290   -4.8740   -2.0410 ho        1 MOL      0.384385
     90 H39        -3.3910   -7.4240   -1.4290 hc        1 MOL      0.090140
     91 H40        -3.6280   -7.1460    0.2730 hc        1 MOL      0.090140
     92 H41        -4.7670   -6.4960   -1.0130 hc        1 MOL      0.090140
     93 N9         -1.1420   -3.9200    1.4550 n         1 MOL     -0.597389
     94 C29         0.0340   -3.1310    1.8110 c3        1 MOL      0.103861
     95 C30         1.3000   -3.6050    1.1410 c         1 MOL      0.342293
     96 O16         1.5470   -4.8160    1.0720 o         1 MOL     -0.540332
     97 C31         0.2310   -3.1620    3.2840 c3        1 MOL      0.020519
     98 C32        -1.0140   -2.4760    3.9680 c3        1 MOL      0.116927
     99 C33         1.4780   -2.2910    3.6550 c3        1 MOL     -0.233821
    100 C34        -1.3830   -3.0590    5.3290 c3        1 MOL     -0.195172
    101 H42        -1.1950   -4.8680    1.8120 hn        1 MOL      0.295580
    102 H43        -0.0980   -2.1680    1.3380 h1        1 MOL      0.008793
    103 H44         0.3200   -4.1880    3.6630 hc        1 MOL      0.075326
    104 H45        -1.9700   -2.5810    3.4420 hc        1 MOL      0.027302
    105 H46        -0.8810   -1.4120    4.1440 hc        1 MOL      0.027302
    106 H47         1.3650   -1.2610    3.3050 hc        1 MOL      0.032349
    107 H48         1.5560   -2.2490    4.7390 hc        1 MOL      0.032349
    108 H49         2.4690   -2.6060    3.3500 hc        1 MOL      0.032349
    109 H50        -0.5150   -3.0730    5.9950 hc        1 MOL      0.030213
    110 H51        -2.1210   -2.3930    5.7850 hc        1 MOL      0.030213
    111 H52        -1.6960   -4.1030    5.2760 hc        1 MOL      0.030213
    112 N10         2.1670   -2.6600    0.6460 n         1 MOL     -0.127261
    113 C35         3.3400   -3.0600   -0.1800 c3        1 MOL     -0.057650
    114 C36         4.5890   -2.4860    0.5550 c         1 MOL      0.244465
    115 O17         4.4610   -1.6040    1.3900 o         1 MOL     -0.330002
    116 C37         3.1210   -2.5950   -1.5260 c3        1 MOL      0.332574
    117 C38         1.8600   -3.1030   -2.1730 c3        1 MOL     -0.472075
    118 O18         3.0240   -1.1870   -1.5920 oh        1 MOL     -0.651092
    119 H53         1.8610   -1.6930    0.6480 hn        1 MOL      0.455011
    120 H54         3.3690   -4.1470   -0.2470 h1        1 MOL      0.075053
    121 H55         3.9650   -2.9130   -2.1360 h1        1 MOL     -0.020297
    122 H56         2.1330   -0.9750   -1.3370 ho        1 MOL      0.390161
    123 H57         1.9330   -4.1620   -2.4060 hc        1 MOL      0.136186
    124 H58         0.8960   -3.0020   -1.6810 hc        1 MOL      0.136186
    125 H59         1.8800   -2.5750   -3.1250 hc        1 MOL      0.136186
    126 N11         5.7350   -2.9950    0.1260 n         1 MOL     -0.199386
    127 C39         7.0080   -2.4990    0.6040 c3        1 MOL     -0.035385
    128 C40         7.2380   -0.9700    0.3830 c         1 MOL      0.305387
    129 O19         7.7150   -0.3880    1.2770 o         1 MOL     -0.433081
    130 C41         8.1800   -3.2780   -0.1100 c3        1 MOL      0.347803
    131 C42         9.4110   -3.1450    0.6930 c3        1 MOL     -0.408513
    132 O20         7.9490   -4.6810   -0.2080 oh        1 MOL     -0.614955
    133 H60         5.7860   -3.7480   -0.5500 hn        1 MOL      0.225371
    134 H61         7.0120   -2.7060    1.6780 h1        1 MOL      0.118554
    135 H62         8.3010   -2.6940   -1.0300 h1        1 MOL     -0.063617
    136 H63         8.8200   -5.0880   -0.2130 ho        1 MOL      0.409584
    137 H64         9.1460   -3.6640    1.6090 hc        1 MOL      0.111514
    138 H65        10.2600   -3.6150    0.1870 hc        1 MOL      0.111514
    139 H66         9.6820   -2.1020    0.8760 hc        1 MOL      0.111514
    140 N12         6.7990   -0.4690   -0.7810 n         1 MOL     -0.154585
    141 C43         6.8780    0.9560   -1.0880 c3        1 MOL     -0.010245
    142 C44         6.0340    1.9230   -0.2060 c         1 MOL      0.315192
    143 O21         6.5290    2.9620    0.2050 o         1 MOL     -0.504677
    144 C45         6.6040    1.0010   -2.5990 c3        1 MOL     -0.214707
    145 C46         7.7140    0.4460   -3.4220 c3        1 MOL      0.178919
    146 C47         7.4250    0.3870   -4.9390 c3        1 MOL     -0.013374
    147 C48         8.4450   -0.4190   -5.7470 c3        1 MOL     -0.094324
    148 N13         9.8020    0.1570   -5.7240 n4        1 MOL     -0.213901
    149 H67         6.4460   -1.0720   -1.5120 hn        1 MOL      0.180931
    150 H68         7.9090    1.2890   -0.9910 h1        1 MOL      0.087333
    151 H69         6.3240    1.9860   -2.9680 hc        1 MOL      0.074105
    152 H70         5.6570    0.5210   -2.8400 hc        1 MOL      0.074105
    153 H71         8.1070   -0.5330   -3.1590 hc        1 MOL     -0.033989
    154 H72         8.5750    1.1060   -3.2960 hc        1 MOL     -0.033989
    155 H73         7.2630    1.3940   -5.3240 hc        1 MOL      0.047248
    156 H74         6.4910   -0.1470   -5.1030 hc        1 MOL      0.047248
    157 H75         8.0780   -0.4480   -6.7770 hx        1 MOL      0.114909
    158 H76         8.4720   -1.3890   -5.2570 hx        1 MOL      0.114909
    159 H77        10.2500   -0.0220   -4.8350 hn        1 MOL      0.262473
    160 H78        10.4720   -0.2760   -6.3410 hn        1 MOL      0.262473
    161 H79         9.8580    1.1020   -6.0720 hn        1 MOL      0.262473
    162 N14         4.8880    1.4610    0.2980 n         1 MOL      0.003687
    163 C49         4.0010    2.0790    1.3250 c3        1 MOL     -0.291224
    164 C50         4.6290    1.8350    2.7080 c         1 MOL      0.562405
    165 O22         4.6060    2.7480    3.5430 o         1 MOL     -0.585624
    166 C51         2.6020    1.3440    1.2990 c3        1 MOL      0.293337
    167 C52         1.9370    1.5680   -0.0990 c3        1 MOL      0.015433
    168 C53         0.6090    0.7850   -0.2580 c         1 MOL      0.641757
    169 O23        -0.5160    1.4050   -0.1910 o         1 MOL     -0.722773
    170 O24         0.6330   -0.4380   -0.5270 o         1 MOL     -0.722773
    171 H80         4.5030    0.6450   -0.1520 hn        1 MOL      0.146401
    172 H81         3.7880    3.1440    1.2540 h1        1 MOL      0.116534
    173 H82         1.8910    1.7120    2.0380 hc        1 MOL     -0.065445
    174 H83         2.7790    0.2720    1.3360 hc        1 MOL     -0.065445
    175 H84         2.6750    1.2680   -0.8360 hc        1 MOL     -0.071696
    176 H85         1.8140    2.6430   -0.2480 hc        1 MOL     -0.071696
    177 N15         4.9740    0.6520    3.1280 n         1 MOL     -0.106265
    178 C54         5.5930    0.3210    4.3880 c3        1 MOL     -0.455422
    179 H86         5.2380   -0.6540    4.7220 h1        1 MOL      0.160624
    180 H87         6.6760    0.2900    4.2650 h1        1 MOL      0.160624
    181 H88         5.3330    1.0740    5.1310 h1        1 MOL      0.160624
    182 H89         4.9250   -0.0700    2.4250 hn        1 MOL      0.134828
    183 Ca1        -2.0870   -0.1210   -1.4470 Ca        1 MOL      1.796505
    184 O25        -0.0910    0.7680   -3.3340 oh        1 MOL     -0.825606
    185 H90         0.8380    0.9660   -3.4440 ho        1 MOL      0.382231
    186 H91        -0.5390    1.5520   -3.6510 ho        1 MOL      0.382231
    187 O26        -1.4500   -2.3680   -2.7980 oh        1 MOL     -0.825606
    188 H92        -0.9170   -2.9400   -3.3410 ho        1 MOL      0.382231
    189 H93        -2.2570   -2.8600   -2.6500 ho        1 MOL      0.382231
@<TRIPOS>BOND
     1    1    2 1   
     2    1    4 1   
     3    1    5 1   
     4    1    6 1   
     5    2    3 2   
     6    2    7 1   
     7    7    8 1   
     8    7   15 1   
     9    8    9 1   
    10    8   11 1   
    11    8   16 1   
    12    9   10 2   
    13    9   19 1   
    14   11   12 1   
    15   11   17 1   
    16   11   18 1   
    17   12   13 1   
    18   12   14 1   
    19   19   20 1   
    20   19   28 1   
    21   20   21 1   
    22   20   23 1   
    23   20   29 1   
    24   21   22 2   
    25   21   41 1   
    26   23   24 1   
    27   23   30 1   
    28   23   31 1   
    29   24   25 1   
    30   24   32 1   
    31   24   33 1   
    32   25   26 1   
    33   25   34 1   
    34   25   35 1   
    35   26   27 1   
    36   26   36 1   
    37   26   37 1   
    38   27   38 1   
    39   27   39 1   
    40   27   40 1   
    41   41   42 1   
    42   41   49 1   
    43   42   43 1   
    44   42   45 1   
    45   42   50 1   
    46   43   44 2   
    47   43   53 1   
    48   45   46 1   
    49   45   51 1   
    50   45   52 1   
    51   46   47 1   
    52   46   48 1   
    53   53   54 1   
    54   53   57 1   
    55   54   55 1   
    56   54   58 1   
    57   54   59 1   
    58   55   56 2   
    59   55   60 1   
    60   60   61 1   
    61   60   68 1   
    62   61   62 1   
    63   61   64 1   
    64   61   69 1   
    65   62   63 2   
    66   62   72 1   
    67   64   65 1   
    68   64   70 1   
    69   64   71 1   
    70   65   66 1   
    71   65   67 1   
    72   72   73 1   
    73   72   76 1   
    74   73   74 1   
    75   73   77 1   
    76   73   78 1   
    77   74   75 2   
    78   74   79 1   
    79   79   80 1   
    80   79   86 1   
    81   80   81 1   
    82   80   83 1   
    83   80   87 1   
    84   81   82 2   
    85   81   93 1   
    86   83   84 1   
    87   83   85 1   
    88   83   88 1   
    89   84   90 1   
    90   84   91 1   
    91   84   92 1   
    92   85   89 1   
    93   93   94 1   
    94   93  101 1   
    95   94   95 1   
    96   94   97 1   
    97   94  102 1   
    98   95   96 2   
    99   95  112 1   
   100   97   98 1   
   101   97   99 1   
   102   97  103 1   
   103   98  100 1   
   104   98  104 1   
   105   98  105 1   
   106   99  106 1   
   107   99  107 1   
   108   99  108 1   
   109  100  109 1   
   110  100  110 1   
   111  100  111 1   
   112  112  113 1   
   113  112  119 1   
   114  113  114 1   
   115  113  116 1   
   116  113  120 1   
   117  114  115 2   
   118  114  126 1   
   119  116  117 1   
   120  116  118 1   
   121  116  121 1   
   122  117  123 1   
   123  117  124 1   
   124  117  125 1   
   125  118  122 1   
   126  126  127 1   
   127  126  133 1   
   128  127  128 1   
   129  127  130 1   
   130  127  134 1   
   131  128  129 2   
   132  128  140 1   
   133  130  131 1   
   134  130  132 1   
   135  130  135 1   
   136  131  137 1   
   137  131  138 1   
   138  131  139 1   
   139  132  136 1   
   140  140  141 1   
   141  140  149 1   
   142  141  142 1   
   143  141  144 1   
   144  141  150 1   
   145  142  143 2   
   146  142  162 1   
   147  144  145 1   
   148  144  151 1   
   149  144  152 1   
   150  145  146 1   
   151  145  153 1   
   152  145  154 1   
   153  146  147 1   
   154  146  155 1   
   155  146  156 1   
   156  147  148 1   
   157  147  157 1   
   158  147  158 1   
   159  148  159 1   
   160  148  160 1   
   161  148  161 1   
   162  162  163 1   
   163  162  171 1   
   164  163  164 1   
   165  163  166 1   
   166  163  172 1   
   167  164  165 2   
   168  164  177 1   
   169  166  167 1   
   170  166  173 1   
   171  166  174 1   
   172  167  168 1   
   173  167  175 1   
   174  167  176 1   
   175  168  169 1   
   176  168  170 1   
   177  177  178 1   
   178  177  182 1   
   179  178  179 1   
   180  178  180 1   
   181  178  181 1   
   182  184  185 1   
   183  184  186 1   
   184  187  188 1   
   185  187  189 1   
@<TRIPOS>SUBSTRUCTURE
     1 MOL         1 TEMP              0 ****  ****    0 ROOT
