@<TRIPOS>MOLECULE
MOL
  175   173     1     0     0
SMALL
resp


@<TRIPOS>ATOM
      1 C1         -0.2340   -4.1230    5.7100 c3        1 MOL     -0.313272
      2 C2          0.4160   -4.1430    4.3440 c         1 MOL      0.728923
      3 O1         -0.2460   -4.5040    3.3340 o         1 MOL     -0.603305
      4 H1         -0.3170   -3.0930    6.0570 hc        1 MOL      0.073604
      5 H2         -1.2280   -4.5650    5.6470 hc        1 MOL      0.073604
      6 H3          0.3740   -4.6940    6.4110 hc        1 MOL      0.073604
      7 N1          1.5440   -3.5030    4.1890 n         1 MOL     -0.659643
      8 C3          2.1730   -3.2510    2.8970 c3        1 MOL      0.265865
      9 C4          2.3420   -4.4400    1.9060 c         1 MOL      0.621936
     10 O2          2.8410   -5.4390    2.3860 o         1 MOL     -0.606876
     11 C5          3.5460   -2.6240    3.0810 c3        1 MOL     -0.463013
     12 C6          4.1920   -2.1920    1.8530 c         1 MOL      0.804916
     13 O3          5.3930   -1.9300    1.8950 o         1 MOL     -0.668721
     14 O4          3.5190   -1.8910    0.8450 o         1 MOL     -0.668721
     15 H4          1.9660   -3.1790    5.0440 hn        1 MOL      0.331034
     16 H5          1.6130   -2.5470    2.2950 h1        1 MOL      0.047672
     17 H6          4.1260   -3.4480    3.5090 hc        1 MOL      0.093214
     18 H7          3.4610   -1.8750    3.8710 hc        1 MOL      0.093214
     19 N2          2.0900   -4.2870    0.6070 n         1 MOL     -0.610043
     20 C7          2.3740   -5.2930   -0.3750 c3        1 MOL      0.412831
     21 C8          3.3850   -5.0130   -1.5020 c         1 MOL      0.529682
     22 O5          3.4730   -5.8610   -2.3620 o         1 MOL     -0.576888
     23 C9          0.9880   -5.6600   -0.8790 c3        1 MOL     -0.204175
     24 H8          1.5380   -3.4970    0.3070 hn        1 MOL      0.322470
     25 H9          2.8030   -6.2200   -0.0120 h1        1 MOL     -0.029957
     26 H10         0.3070   -6.0320   -0.1210 hc        1 MOL      0.032846
     27 H11         0.5450   -4.8120   -1.4110 hc        1 MOL      0.032846
     28 H12         1.1670   -6.4800   -1.5740 hc        1 MOL      0.032846
     29 N3          4.0520   -3.8830   -1.5100 n         1 MOL     -0.562245
     30 C10         4.7820   -3.4260   -2.7230 c3        1 MOL      0.184490
     31 C11         6.1050   -2.6650   -2.3900 c         1 MOL      0.341900
     32 O6          7.0590   -2.6600   -3.1790 o         1 MOL     -0.558276
     33 C12         3.9740   -2.5100   -3.6800 c3        1 MOL     -0.148271
     34 C13         3.1150   -1.3910   -3.0840 c         1 MOL      0.729050
     35 O7          3.4040   -0.9110   -1.9620 o         1 MOL     -0.680514
     36 O8          2.2230   -1.0930   -3.8540 o         1 MOL     -0.680514
     37 H13         3.8530   -3.2040   -0.7860 hn        1 MOL      0.315851
     38 H14         5.1700   -4.2600   -3.3210 h1        1 MOL      0.039877
     39 H15         3.3290   -3.2040   -4.2220 hc        1 MOL      0.028820
     40 H16         4.5360   -2.0040   -4.4620 hc        1 MOL      0.028820
     41 N4          6.1660   -2.1170   -1.2070 n         1 MOL     -0.049852
     42 C14         7.2610   -1.3730   -0.6960 c3        1 MOL     -0.003898
     43 C15         7.4350    0.0760   -1.1630 c         1 MOL      0.548328
     44 O9          8.5320    0.4590   -1.4300 o         1 MOL     -0.596213
     45 H17         5.3860   -2.1960   -0.5710 hn        1 MOL      0.045019
     46 H18         8.2000   -1.8920   -0.8930 h1        1 MOL      0.026698
     47 H19         7.1220   -1.3030    0.3770 h1        1 MOL      0.026698
     48 N5          6.3480    0.8160   -1.3520 n         1 MOL     -0.282891
     49 C16         6.2130    1.9990   -2.1750 c3        1 MOL      0.074443
     50 C17         6.0180    3.2830   -1.3530 c         1 MOL      0.349976
     51 O10         5.8780    4.3940   -1.9020 o         1 MOL     -0.508808
     52 C18         5.1140    1.8390   -3.2350 c3        1 MOL     -0.170417
     53 C19         3.6620    1.9840   -2.6270 c         1 MOL      0.498840
     54 N6          2.6950    2.2320   -3.4470 n         1 MOL     -0.601459
     55 O11         3.4590    1.9050   -1.4580 o         1 MOL     -0.452618
     56 H20         5.4690    0.3540   -1.1500 hn        1 MOL      0.139033
     57 H21         7.1010    2.1400   -2.7980 h1        1 MOL      0.098433
     58 H22         5.1890    0.8990   -3.7660 hc        1 MOL      0.058909
     59 H23         5.1980    2.6480   -3.9600 hc        1 MOL      0.058909
     60 H24         2.8880    2.3820   -4.4320 hn        1 MOL      0.321345
     61 H25         1.7490    2.1000   -3.1350 hn        1 MOL      0.321345
     62 N7          6.0390    3.1470   -0.0080 n         1 MOL     -0.269851
     63 C20         6.0300    4.2610    0.9270 c3        1 MOL     -0.105022
     64 C21         4.7480    4.7020    1.5570 c         1 MOL      0.520130
     65 O12         4.7930    5.3850    2.5670 o         1 MOL     -0.602622
     66 H26         5.9760    2.2030    0.3550 hn        1 MOL      0.171393
     67 H27         6.4560    5.0800    0.3520 h1        1 MOL      0.084931
     68 H28         6.7240    4.0920    1.7600 h1        1 MOL      0.084931
     69 N8          3.6240    4.2450    1.0560 n         1 MOL     -0.187842
     70 C22         2.2630    4.7030    1.3840 c3        1 MOL     -0.142430
     71 C23         1.3610    3.5370    1.6270 c         1 MOL      0.595909
     72 O13         1.6710    2.4470    1.0820 o         1 MOL     -0.643621
     73 C24         1.6290    5.7260    0.3730 c3        1 MOL      0.471311
     74 C25         2.3020    7.0160    0.2820 c3        1 MOL     -0.237226
     75 O14         1.5910    5.2060   -0.9580 oh        1 MOL     -0.614629
     76 H29         3.6610    3.7590    0.1680 hn        1 MOL      0.226857
     77 H30         2.3630    5.2060    2.3470 h1        1 MOL      0.060958
     78 H31         0.6440    6.0020    0.7420 h1        1 MOL     -0.040006
     79 H32         1.0510    4.4130   -0.9990 ho        1 MOL      0.382876
     80 H33         1.7900    7.6010   -0.4870 hc        1 MOL      0.055161
     81 H34         2.2330    7.5950    1.2080 hc        1 MOL      0.055161
     82 H35         3.3580    6.8970    0.0560 hc        1 MOL      0.055161
     83 N9          0.3220    3.6740    2.4530 n         1 MOL     -0.464281
     84 C26        -0.8250    2.8040    2.2900 c3        1 MOL     -0.000130
     85 C27        -1.4570    3.0050    0.9530 c         1 MOL      0.377683
     86 O15        -1.6250    4.1130    0.4770 o         1 MOL     -0.564237
     87 C28        -1.8140    3.0160    3.5020 c3        1 MOL      0.226523
     88 C29        -1.2900    2.4920    4.8850 c3        1 MOL     -0.101347
     89 C30        -3.2860    2.6470    3.3160 c3        1 MOL     -0.117726
     90 C31        -2.1190    2.9850    6.0120 c3        1 MOL     -0.002884
     91 H36         0.1830    4.6020    2.8100 hn        1 MOL      0.277267
     92 H37        -0.6980    1.7300    2.3760 h1        1 MOL      0.024296
     93 H38        -1.8650    4.1080    3.5510 hc        1 MOL     -0.043304
     94 H39        -0.2450    2.7620    5.0140 hc        1 MOL      0.027033
     95 H40        -1.4430    1.4020    4.8610 hc        1 MOL      0.027033
     96 H41        -3.9510    3.1630    4.0050 hc        1 MOL      0.025460
     97 H42        -3.6810    3.0300    2.3690 hc        1 MOL      0.025460
     98 H43        -3.4060    1.5650    3.3710 hc        1 MOL      0.025460
     99 H44        -1.8390    2.5800    6.9770 hc        1 MOL     -0.002560
    100 H45        -2.0530    4.0660    6.1100 hc        1 MOL     -0.002560
    101 H46        -3.1530    2.6660    5.8750 hc        1 MOL     -0.002560
    102 N10        -1.7310    1.9110    0.3040 n         1 MOL     -0.023850
    103 C32        -2.6090    1.9190   -0.8610 c3        1 MOL     -0.096762
    104 C33        -4.0050    1.4930   -0.5110 c         1 MOL      0.613286
    105 O16        -4.2960    0.8740    0.5170 o         1 MOL     -0.487143
    106 C34        -1.9530    0.9680   -1.8630 c3        1 MOL     -0.177762
    107 C35        -0.5890    1.4610   -2.2700 c         1 MOL      0.758545
    108 O17         0.4610    1.1070   -1.6700 o         1 MOL     -0.689264
    109 O18        -0.4590    2.1220   -3.3600 o         1 MOL     -0.689264
    110 H47        -1.4570    1.0180    0.6920 hn        1 MOL      0.128324
    111 H48        -2.6200    2.8760   -1.3810 h1        1 MOL      0.063653
    112 H49        -2.5760    0.7760   -2.7370 hc        1 MOL      0.041016
    113 H50        -1.8810    0.0420   -1.2840 hc        1 MOL      0.041016
    114 N11        -4.8980    1.8120   -1.4320 n         1 MOL     -0.624113
    115 C36        -6.3490    1.4950   -1.2940 c3        1 MOL      0.242290
    116 C37        -6.5200   -0.0180   -1.2190 c         1 MOL      0.471775
    117 O19        -7.3890   -0.4510   -0.3810 o         1 MOL     -0.513913
    118 C38        -7.3230    2.0830   -2.3420 c3        1 MOL     -0.170140
    119 C39        -8.8240    1.7080   -2.2180 ca        1 MOL     -0.045089
    120 C40        -9.3270    0.5660   -2.8710 ca        1 MOL     -0.069837
    121 C41        -9.6690    2.4350   -1.3500 ca        1 MOL     -0.069837
    122 C42       -10.7470    0.2930   -2.8370 ca        1 MOL     -0.194563
    123 C43       -11.0470    2.0600   -1.2040 ca        1 MOL     -0.194563
    124 C44       -11.5260    0.9660   -1.9500 ca        1 MOL      0.006785
    125 H51        -4.5240    2.2120   -2.2820 hn        1 MOL      0.329701
    126 H52        -6.5680    1.8010   -0.2640 h1        1 MOL      0.068466
    127 H53        -6.9750    1.8970   -3.3540 hc        1 MOL      0.076164
    128 H54        -7.2570    3.1650   -2.2450 hc        1 MOL      0.076164
    129 H55        -8.7010   -0.1150   -3.4510 ha        1 MOL      0.102292
    130 H56        -9.3040    3.3420   -0.8740 ha        1 MOL      0.102292
    131 H57       -11.2090   -0.4910   -3.4060 ha        1 MOL      0.126836
    132 H58       -11.6610    2.6830   -0.5740 ha        1 MOL      0.126836
    133 H59       -12.5770    0.6940   -1.8880 ha        1 MOL      0.069750
    134 N12        -5.8060   -0.9470   -1.9300 n         1 MOL     -0.146382
    135 C45        -5.8620   -2.4100   -1.8780 c3        1 MOL     -0.030685
    136 C46        -5.3300   -3.0040   -0.5390 c         1 MOL      0.305820
    137 O20        -5.4470   -4.2270   -0.2550 o         1 MOL     -0.533717
    138 C47        -5.1330   -2.9820   -3.0930 c3        1 MOL     -0.099614
    139 C48        -5.4940   -1.8750   -4.0890 c3        1 MOL      0.003572
    140 C49        -5.1370   -0.6900   -3.2540 c3        1 MOL     -0.099091
    141 H60        -6.8820   -2.7950   -1.9070 h1        1 MOL      0.095143
    142 H61        -4.0720   -3.1470   -2.8750 hc        1 MOL      0.076156
    143 H62        -5.5760   -3.9260   -3.3970 hc        1 MOL      0.076156
    144 H63        -4.9440   -1.9280   -5.0360 hc        1 MOL      0.030540
    145 H64        -6.5310   -1.8310   -4.4350 hc        1 MOL      0.030540
    146 H65        -4.0490   -0.7020   -3.1280 h1        1 MOL      0.075564
    147 H66        -5.4450    0.2690   -3.6800 h1        1 MOL      0.075564
    148 N13        -4.6960   -2.2140    0.2990 n         1 MOL     -0.006206
    149 C50        -4.1430   -2.5420    1.6150 c3        1 MOL     -0.036118
    150 C51        -4.8970   -1.8490    2.7550 c         1 MOL      0.367220
    151 O21        -4.9290   -2.3850    3.8960 o         1 MOL     -0.540298
    152 C52        -2.7150   -1.9730    1.6370 c3        1 MOL     -0.060525
    153 C53        -1.6810   -2.5680    0.5710 c3        1 MOL      0.031692
    154 C54        -0.4290   -1.7230    0.4920 c         1 MOL      0.462884
    155 O22         0.5260   -2.1040   -0.2640 o         1 MOL     -0.671164
    156 O23        -0.2870   -0.6560    1.1700 o         1 MOL     -0.671164
    157 H67        -4.6830   -1.2510    0.0020 hn        1 MOL      0.041096
    158 H68        -4.1630   -3.6150    1.8410 h1        1 MOL      0.108669
    159 H69        -2.2760   -2.2610    2.5870 hc        1 MOL      0.047688
    160 H70        -2.7800   -0.8920    1.4980 hc        1 MOL      0.047688
    161 H71        -2.2200   -2.7330   -0.3690 hc        1 MOL      0.059937
    162 H72        -1.4360   -3.6100    0.7500 hc        1 MOL      0.059937
    163 N14        -5.6260   -0.7650    2.4420 n         1 MOL     -0.064108
    164 C55        -6.5890   -0.1730    3.4030 c3        1 MOL     -0.078855
    165 H73        -6.2990    0.8550    3.6200 h1        1 MOL      0.050062
    166 H74        -7.5890   -0.1840    2.9690 h1        1 MOL      0.050062
    167 H75        -6.5870   -0.7540    4.3250 h1        1 MOL      0.050062
    168 H76        -5.6880   -0.5510    1.4530 hn        1 MOL      0.071281
    169 Ca1         2.0530    0.0630   -0.0100 Ca        1 MOL      1.600925
    170 O24         2.0510    0.0790    2.7070 oh        1 MOL     -0.692366
    171 H77         2.1780    0.4230    3.5860 ho        1 MOL      0.360464
    172 H78         1.2040   -0.3590    2.7340 ho        1 MOL      0.360464
    173 O25         4.6390    0.7420    1.1020 oh        1 MOL     -0.692366
    174 H79         4.9630    1.1880    1.8820 ho        1 MOL      0.360464
    175 H80         4.8900   -0.1700    1.2200 ho        1 MOL      0.360464
@<TRIPOS>BOND
     1    1    2 1   
     2    1    4 1   
     3    1    5 1   
     4    1    6 1   
     5    2    3 2   
     6    2    7 1   
     7    7    8 1   
     8    7   15 1   
     9    8    9 1   
    10    8   11 1   
    11    8   16 1   
    12    9   10 2   
    13    9   19 1   
    14   11   12 1   
    15   11   17 1   
    16   11   18 1   
    17   12   13 1   
    18   12   14 1   
    19   19   20 1   
    20   19   24 1   
    21   20   21 1   
    22   20   23 1   
    23   20   25 1   
    24   21   22 2   
    25   21   29 1   
    26   23   26 1   
    27   23   27 1   
    28   23   28 1   
    29   29   30 1   
    30   29   37 1   
    31   30   31 1   
    32   30   33 1   
    33   30   38 1   
    34   31   32 2   
    35   31   41 1   
    36   33   34 1   
    37   33   39 1   
    38   33   40 1   
    39   34   35 1   
    40   34   36 1   
    41   41   42 1   
    42   41   45 1   
    43   42   43 1   
    44   42   46 1   
    45   42   47 1   
    46   43   44 2   
    47   43   48 1   
    48   48   49 1   
    49   48   56 1   
    50   49   50 1   
    51   49   52 1   
    52   49   57 1   
    53   50   51 2   
    54   50   62 1   
    55   52   53 1   
    56   52   58 1   
    57   52   59 1   
    58   53   54 1   
    59   53   55 2   
    60   54   60 1   
    61   54   61 1   
    62   62   63 1   
    63   62   66 1   
    64   63   64 1   
    65   63   67 1   
    66   63   68 1   
    67   64   65 2   
    68   64   69 1   
    69   69   70 1   
    70   69   76 1   
    71   70   71 1   
    72   70   73 1   
    73   70   77 1   
    74   71   72 2   
    75   71   83 1   
    76   73   74 1   
    77   73   75 1   
    78   73   78 1   
    79   74   80 1   
    80   74   81 1   
    81   74   82 1   
    82   75   79 1   
    83   83   84 1   
    84   83   91 1   
    85   84   85 1   
    86   84   87 1   
    87   84   92 1   
    88   85   86 2   
    89   85  102 1   
    90   87   88 1   
    91   87   89 1   
    92   87   93 1   
    93   88   90 1   
    94   88   94 1   
    95   88   95 1   
    96   89   96 1   
    97   89   97 1   
    98   89   98 1   
    99   90   99 1   
   100   90  100 1   
   101   90  101 1   
   102  102  103 1   
   103  102  110 1   
   104  103  104 1   
   105  103  106 1   
   106  103  111 1   
   107  104  105 2   
   108  104  114 1   
   109  106  107 1   
   110  106  112 1   
   111  106  113 1   
   112  107  108 1   
   113  107  109 1   
   114  114  115 1   
   115  114  125 1   
   116  115  116 1   
   117  115  118 1   
   118  115  126 1   
   119  116  117 2   
   120  116  134 1   
   121  118  119 1   
   122  118  127 1   
   123  118  128 1   
   124  119  120 ar  
   125  119  121 ar  
   126  120  122 ar  
   127  120  129 1   
   128  121  123 ar  
   129  121  130 1   
   130  122  124 ar  
   131  122  131 1   
   132  123  124 ar  
   133  123  132 1   
   134  124  133 1   
   135  134  135 1   
   136  134  140 1   
   137  135  136 1   
   138  135  138 1   
   139  135  141 1   
   140  136  137 2   
   141  136  148 1   
   142  138  139 1   
   143  138  142 1   
   144  138  143 1   
   145  139  140 1   
   146  139  144 1   
   147  139  145 1   
   148  140  146 1   
   149  140  147 1   
   150  148  149 1   
   151  148  157 1   
   152  149  150 1   
   153  149  152 1   
   154  149  158 1   
   155  150  151 2   
   156  150  163 1   
   157  152  153 1   
   158  152  159 1   
   159  152  160 1   
   160  153  154 1   
   161  153  161 1   
   162  153  162 1   
   163  154  155 1   
   164  154  156 1   
   165  163  164 1   
   166  163  168 1   
   167  164  165 1   
   168  164  166 1   
   169  164  167 1   
   170  170  171 1   
   171  170  172 1   
   172  173  174 1   
   173  173  175 1   
@<TRIPOS>SUBSTRUCTURE
     1 MOL         1 TEMP              0 ****  ****    0 ROOT
