@<TRIPOS>MOLECULE
MOL
  175   173     1     0     0
SMALL
resp


@<TRIPOS>ATOM
      1 C1         -0.9090    3.4680    5.8470 c3        1 MOL     -0.330286
      2 C2         -1.0830    3.1070    4.3990 c         1 MOL      0.792752
      3 O1         -0.1420    3.3360    3.6150 o         1 MOL     -0.597465
      4 H1         -1.4070    2.7250    6.4690 hc        1 MOL      0.074955
      5 H2          0.1530    3.4930    6.0910 hc        1 MOL      0.074955
      6 H3         -1.3470    4.4490    6.0330 hc        1 MOL      0.074955
      7 N1         -2.2380    2.5340    3.9950 n         1 MOL     -0.712215
      8 C3         -2.6380    2.2560    2.5500 c3        1 MOL      0.167765
      9 C4         -2.9820    3.6150    1.9340 c         1 MOL      0.599446
     10 O2         -3.8720    4.3130    2.3320 o         1 MOL     -0.613343
     11 C5         -3.7160    1.1830    2.5660 c3        1 MOL     -0.280897
     12 C6         -4.2000    0.7250    1.1810 c         1 MOL      0.846062
     13 O3         -5.1050   -0.1320    1.1320 o         1 MOL     -0.703924
     14 O4         -3.6250    1.1410    0.1310 o         1 MOL     -0.703924
     15 H4         -2.9670    2.3390    4.6660 hn        1 MOL      0.347327
     16 H5         -1.8020    1.7690    2.0390 h1        1 MOL     -0.030618
     17 H6         -4.5410    1.5840    3.1620 hc        1 MOL      0.055342
     18 H7         -3.3620    0.3490    3.1780 hc        1 MOL      0.055342
     19 N2         -2.2900    3.9800    0.8940 n         1 MOL     -0.281099
     20 C7         -2.5540    5.2150    0.1180 c3        1 MOL      0.177899
     21 C8         -3.5430    4.9970   -1.1250 c         1 MOL      0.557076
     22 O5         -3.8050    5.9500   -1.8540 o         1 MOL     -0.569038
     23 C9         -1.2340    5.8600   -0.3020 c3        1 MOL     -0.376011
     24 H8         -1.6570    3.2450    0.6150 hn        1 MOL      0.186351
     25 H9         -3.1430    5.8620    0.7720 h1        1 MOL      0.030387
     26 H10        -0.6630    5.0880   -0.8200 hc        1 MOL      0.106707
     27 H11        -1.3770    6.6060   -1.0930 hc        1 MOL      0.106707
     28 H12        -0.7370    6.2120    0.6020 hc        1 MOL      0.106707
     29 N3         -4.1150    3.7990   -1.3560 n         1 MOL     -0.509476
     30 C10        -5.0220    3.5320   -2.5020 c3        1 MOL      0.215672
     31 C11        -6.2010    2.6470   -2.1910 c         1 MOL      0.292408
     32 O6         -7.0850    2.4860   -3.0510 o         1 MOL     -0.516351
     33 C12        -4.3000    2.9210   -3.6620 c3        1 MOL     -0.195193
     34 C13        -3.4560    1.6960   -3.3220 c         1 MOL      0.735021
     35 O7         -2.2050    1.7280   -3.2400 o         1 MOL     -0.719247
     36 O8         -4.0310    0.6090   -3.0440 o         1 MOL     -0.719247
     37 H13        -3.8560    3.0070   -0.7700 hn        1 MOL      0.204455
     38 H14        -5.4780    4.4740   -2.8050 h1        1 MOL      0.078287
     39 H15        -3.6180    3.6170   -4.1400 hc        1 MOL      0.040785
     40 H16        -4.9940    2.5410   -4.4140 hc        1 MOL      0.040785
     41 N4         -6.3960    2.2550   -0.9160 n         1 MOL     -0.058293
     42 C14        -7.7520    1.8500   -0.4800 c3        1 MOL     -0.359572
     43 C15        -8.0540    0.3330   -0.7880 c         1 MOL      0.534127
     44 O9         -9.2120   -0.1080   -0.6330 o         1 MOL     -0.568568
     45 H17        -5.6730    2.5740   -0.2820 hn        1 MOL      0.158324
     46 H18        -8.4550    2.4990   -1.0010 h1        1 MOL      0.147473
     47 H19        -7.8330    1.9860    0.5910 h1        1 MOL      0.147473
     48 N5         -7.0790   -0.4080   -1.3180 n         1 MOL     -0.212340
     49 C16        -7.2100   -1.7900   -1.6560 c3        1 MOL     -0.084304
     50 C17        -7.1460   -2.7120   -0.4090 c         1 MOL      0.417657
     51 O10        -7.7730   -3.7960   -0.4880 o         1 MOL     -0.568505
     52 C18        -6.0760   -2.0980   -2.6480 c3        1 MOL     -0.030725
     53 C19        -4.8010   -2.5960   -2.0560 c         1 MOL      0.465252
     54 N6         -4.5160   -3.9000   -2.2130 n         1 MOL     -0.754736
     55 O11        -4.0510   -1.8450   -1.4170 o         1 MOL     -0.576030
     56 H20        -6.2150    0.0820   -1.4730 hn        1 MOL      0.229559
     57 H21        -8.1900   -1.9200   -2.1210 h1        1 MOL      0.114328
     58 H22        -5.8120   -1.2340   -3.2610 hc        1 MOL      0.036008
     59 H23        -6.4200   -2.8840   -3.3190 hc        1 MOL      0.036008
     60 H24        -5.1700   -4.4210   -2.7730 hn        1 MOL      0.372121
     61 H25        -3.8470   -4.2430   -1.5370 hn        1 MOL      0.372121
     62 N7         -6.4510   -2.3620    0.6920 n         1 MOL     -0.071493
     63 C20        -6.4840   -2.9430    2.0480 c3        1 MOL     -0.104769
     64 C21        -5.1750   -3.6540    2.3820 c         1 MOL      0.554006
     65 O12        -5.1700   -4.4520    3.3180 o         1 MOL     -0.566108
     66 H26        -6.2020   -1.3850    0.7000 hn        1 MOL      0.176375
     67 H27        -7.3490   -3.6020    2.1340 h1        1 MOL      0.069515
     68 H28        -6.6100   -2.0520    2.6670 h1        1 MOL      0.069515
     69 N8         -4.0720   -3.3740    1.6380 n         1 MOL     -0.218618
     70 C22        -2.6900   -3.7180    1.9180 c3        1 MOL      0.029092
     71 C23        -1.7340   -2.6090    1.5100 c         1 MOL      0.389428
     72 O13        -2.0570   -1.6220    0.8510 o         1 MOL     -0.387035
     73 C24        -2.3240   -4.9980    1.1270 c3        1 MOL      0.216844
     74 C25        -2.9650   -6.2850    1.6980 c3        1 MOL     -0.354562
     75 O14        -2.5960   -5.0290   -0.2540 oh        1 MOL     -0.669871
     76 H29        -4.1660   -2.4970    1.1410 hn        1 MOL      0.105176
     77 H30        -2.6070   -3.9150    2.9860 h1        1 MOL      0.083204
     78 H31        -1.2450   -5.0680    1.2450 h1        1 MOL      0.036459
     79 H32        -2.2900   -5.8530   -0.6370 ho        1 MOL      0.448050
     80 H33        -2.4850   -7.1160    1.1790 hc        1 MOL      0.098197
     81 H34        -2.7760   -6.4030    2.7680 hc        1 MOL      0.098197
     82 H35        -4.0470   -6.3990    1.6220 hc        1 MOL      0.098197
     83 N9         -0.5020   -2.7890    2.0330 n         1 MOL     -0.309360
     84 C26         0.6730   -1.9520    1.7630 c3        1 MOL     -0.051459
     85 C27         1.7460   -2.6690    0.9350 c         1 MOL      0.469983
     86 O15         2.1350   -3.8060    1.2630 o         1 MOL     -0.583205
     87 C28         1.1870   -1.1480    3.0260 c3        1 MOL      0.371472
     88 C29         1.8110   -2.0090    4.0730 c3        1 MOL     -0.210131
     89 C30         0.0650   -0.1890    3.5190 c3        1 MOL     -0.506351
     90 C31         2.3160   -1.1760    5.3240 c3        1 MOL      0.098452
     91 H36        -0.4520   -3.4470    2.8010 hn        1 MOL      0.245417
     92 H37         0.4220   -1.1630    1.0560 h1        1 MOL     -0.094782
     93 H38         2.0860   -0.6240    2.6920 hc        1 MOL     -0.140362
     94 H39         2.7120   -2.4760    3.6750 hc        1 MOL      0.050472
     95 H40         1.0350   -2.7270    4.3410 hc        1 MOL      0.050472
     96 H41        -0.7610   -0.7130    3.9880 hc        1 MOL      0.130430
     97 H42         0.5440    0.4620    4.2500 hc        1 MOL      0.130430
     98 H43        -0.4610    0.3990    2.7720 hc        1 MOL      0.130430
     99 H44         1.5040   -0.8490    5.9710 hc        1 MOL     -0.025649
    100 H45         2.9080   -1.7960    5.9880 hc        1 MOL     -0.025649
    101 H46         2.9460   -0.3200    5.0850 hc        1 MOL     -0.025649
    102 N10         2.2390   -2.0020   -0.1370 n         1 MOL     -0.290293
    103 C32         3.4340   -2.3750   -0.8270 c3        1 MOL      0.188207
    104 C33         4.6470   -1.5820   -0.3300 c         1 MOL      0.298122
    105 O16         4.6230   -0.8390    0.6960 o         1 MOL     -0.362977
    106 C34         3.0920   -1.9770   -2.3400 c3        1 MOL     -0.331934
    107 C35         4.0590   -2.3680   -3.5050 c         1 MOL      0.731361
    108 O17         5.1100   -3.0180   -3.3780 o         1 MOL     -0.699264
    109 O18         3.7280   -2.0850   -4.6700 o         1 MOL     -0.699264
    110 H47         1.8350   -1.1120   -0.3850 hn        1 MOL      0.260642
    111 H48         3.7170   -3.4360   -0.8080 h1        1 MOL      0.059100
    112 H49         2.9890   -0.8920   -2.2560 hc        1 MOL      0.085550
    113 H50         2.0730   -2.2910   -2.5670 hc        1 MOL      0.085550
    114 N11         5.8150   -1.8020   -0.9500 n         1 MOL     -0.438611
    115 C36         7.0870   -1.2250   -0.5240 c3        1 MOL      0.435957
    116 C37         7.0750    0.3380   -0.5080 c         1 MOL      0.216598
    117 O19         7.4570    0.9560    0.4570 o         1 MOL     -0.475574
    118 C38         8.2920   -1.8170   -1.2900 c3        1 MOL     -0.251505
    119 C39         9.6980   -1.4310   -0.7940 ca        1 MOL      0.089082
    120 C40        10.0270   -1.5400    0.6000 ca        1 MOL     -0.113557
    121 C41        10.7070   -1.1840   -1.7570 ca        1 MOL     -0.113557
    122 C42        11.3220   -1.3920    1.0560 ca        1 MOL     -0.190927
    123 C43        12.0220   -0.9700   -1.2870 ca        1 MOL     -0.190927
    124 C44        12.2740   -1.0400    0.1180 ca        1 MOL     -0.036404
    125 H51         5.7980   -2.4940   -1.6790 hn        1 MOL      0.223557
    126 H52         7.1850   -1.5140    0.5210 h1        1 MOL     -0.003627
    127 H53         8.2750   -1.6310   -2.3580 hc        1 MOL      0.078305
    128 H54         8.1850   -2.9020   -1.2450 hc        1 MOL      0.078305
    129 H55         9.2340   -1.8470    1.2690 ha        1 MOL      0.109407
    130 H56        10.4210   -1.0050   -2.7810 ha        1 MOL      0.109407
    131 H57        11.4200   -1.5010    2.1250 ha        1 MOL      0.129153
    132 H58        12.8070   -0.6210   -1.9490 ha        1 MOL      0.129153
    133 H59        13.2880   -0.8790    0.4800 ha        1 MOL      0.065903
    134 N12         6.6370    0.9480   -1.6020 n         1 MOL     -0.047443
    135 C45         6.4320    2.4430   -1.5810 c3        1 MOL      0.020705
    136 C46         5.5490    2.9480   -0.4750 c         1 MOL      0.328673
    137 O20         5.6970    4.0640    0.0180 o         1 MOL     -0.525087
    138 C47         5.9740    2.8800   -2.9830 c3        1 MOL     -0.117840
    139 C48         6.4490    1.7500   -3.8710 c3        1 MOL     -0.058624
    140 C49         6.2140    0.5210   -2.9500 c3        1 MOL     -0.160644
    141 H60         7.3530    2.9770   -1.3660 h1        1 MOL      0.078983
    142 H61         4.8810    2.8620   -3.0500 hc        1 MOL      0.068352
    143 H62         6.3750    3.8430   -3.3070 hc        1 MOL      0.068352
    144 H63         5.8140    1.6980   -4.7520 hc        1 MOL      0.043645
    145 H64         7.4730    1.8990   -4.2100 hc        1 MOL      0.043645
    146 H65         5.1450    0.3000   -2.9590 h1        1 MOL      0.114152
    147 H66         6.7980   -0.3520   -3.2310 h1        1 MOL      0.114152
    148 N13         4.5890    2.1620    0.0100 n         1 MOL     -0.132459
    149 C50         3.6600    2.4630    1.1010 c3        1 MOL      0.069081
    150 C51         4.2720    2.2310    2.4890 c         1 MOL      0.392956
    151 O21         4.1980    3.1440    3.3330 o         1 MOL     -0.580785
    152 C52         2.2950    1.7860    0.9180 c3        1 MOL     -0.110284
    153 C53         1.4610    2.3690   -0.2220 c3        1 MOL      0.029120
    154 C54         0.3330    1.3800   -0.5460 c         1 MOL      0.605887
    155 O22         0.6690    0.3510   -1.1860 o         1 MOL     -0.689560
    156 O23        -0.8270    1.4730   -0.1120 o         1 MOL     -0.689560
    157 H67         4.5670    1.1860   -0.2520 hn        1 MOL      0.096745
    158 H68         3.3870    3.5180    1.0680 h1        1 MOL      0.048949
    159 H69         1.7860    1.8800    1.8810 hc        1 MOL      0.120217
    160 H70         2.4480    0.7310    0.6820 hc        1 MOL      0.120217
    161 H71         2.0980    2.4980   -1.0960 hc        1 MOL     -0.010950
    162 H72         1.1690    3.3960    0.0260 hc        1 MOL     -0.010950
    163 N14         4.9080    1.1270    2.6460 n         1 MOL      0.105711
    164 C55         5.8860    0.8360    3.6660 c3        1 MOL     -0.169606
    165 H73         6.6890    1.5720    3.6190 h1        1 MOL      0.059132
    166 H74         5.4120    0.8770    4.6470 h1        1 MOL      0.059132
    167 H75         6.2970   -0.1600    3.5010 h1        1 MOL      0.059132
    168 H76         4.8420    0.4440    1.9010 hn        1 MOL      0.026231
    169 Ca1        -2.1310   -0.2400   -1.4470 Ca        1 MOL      1.747514
    170 O24        -1.6920   -1.1380   -3.9090 oh        1 MOL     -0.807164
    171 H77        -2.2490   -1.8280   -4.2620 ho        1 MOL      0.397636
    172 H78        -1.5150   -0.5750   -4.6670 ho        1 MOL      0.397636
    173 O25        -1.1040   -2.8960   -1.5080 oh        1 MOL     -0.807164
    174 H79        -1.4790   -3.5250   -0.8930 ho        1 MOL      0.397636
    175 H80        -0.8740   -3.4240   -2.2780 ho        1 MOL      0.397636
@<TRIPOS>BOND
     1    1    2 1   
     2    1    4 1   
     3    1    5 1   
     4    1    6 1   
     5    2    3 2   
     6    2    7 1   
     7    7    8 1   
     8    7   15 1   
     9    8    9 1   
    10    8   11 1   
    11    8   16 1   
    12    9   10 2   
    13    9   19 1   
    14   11   12 1   
    15   11   17 1   
    16   11   18 1   
    17   12   13 1   
    18   12   14 1   
    19   19   20 1   
    20   19   24 1   
    21   20   21 1   
    22   20   23 1   
    23   20   25 1   
    24   21   22 2   
    25   21   29 1   
    26   23   26 1   
    27   23   27 1   
    28   23   28 1   
    29   29   30 1   
    30   29   37 1   
    31   30   31 1   
    32   30   33 1   
    33   30   38 1   
    34   31   32 2   
    35   31   41 1   
    36   33   34 1   
    37   33   39 1   
    38   33   40 1   
    39   34   35 1   
    40   34   36 1   
    41   41   42 1   
    42   41   45 1   
    43   42   43 1   
    44   42   46 1   
    45   42   47 1   
    46   43   44 2   
    47   43   48 1   
    48   48   49 1   
    49   48   56 1   
    50   49   50 1   
    51   49   52 1   
    52   49   57 1   
    53   50   51 2   
    54   50   62 1   
    55   52   53 1   
    56   52   58 1   
    57   52   59 1   
    58   53   54 1   
    59   53   55 2   
    60   54   60 1   
    61   54   61 1   
    62   62   63 1   
    63   62   66 1   
    64   63   64 1   
    65   63   67 1   
    66   63   68 1   
    67   64   65 2   
    68   64   69 1   
    69   69   70 1   
    70   69   76 1   
    71   70   71 1   
    72   70   73 1   
    73   70   77 1   
    74   71   72 2   
    75   71   83 1   
    76   73   74 1   
    77   73   75 1   
    78   73   78 1   
    79   74   80 1   
    80   74   81 1   
    81   74   82 1   
    82   75   79 1   
    83   83   84 1   
    84   83   91 1   
    85   84   85 1   
    86   84   87 1   
    87   84   92 1   
    88   85   86 2   
    89   85  102 1   
    90   87   88 1   
    91   87   89 1   
    92   87   93 1   
    93   88   90 1   
    94   88   94 1   
    95   88   95 1   
    96   89   96 1   
    97   89   97 1   
    98   89   98 1   
    99   90   99 1   
   100   90  100 1   
   101   90  101 1   
   102  102  103 1   
   103  102  110 1   
   104  103  104 1   
   105  103  106 1   
   106  103  111 1   
   107  104  105 2   
   108  104  114 1   
   109  106  107 1   
   110  106  112 1   
   111  106  113 1   
   112  107  108 1   
   113  107  109 1   
   114  114  115 1   
   115  114  125 1   
   116  115  116 1   
   117  115  118 1   
   118  115  126 1   
   119  116  117 2   
   120  116  134 1   
   121  118  119 1   
   122  118  127 1   
   123  118  128 1   
   124  119  120 ar  
   125  119  121 ar  
   126  120  122 ar  
   127  120  129 1   
   128  121  123 ar  
   129  121  130 1   
   130  122  124 ar  
   131  122  131 1   
   132  123  124 ar  
   133  123  132 1   
   134  124  133 1   
   135  134  135 1   
   136  134  140 1   
   137  135  136 1   
   138  135  138 1   
   139  135  141 1   
   140  136  137 2   
   141  136  148 1   
   142  138  139 1   
   143  138  142 1   
   144  138  143 1   
   145  139  140 1   
   146  139  144 1   
   147  139  145 1   
   148  140  146 1   
   149  140  147 1   
   150  148  149 1   
   151  148  157 1   
   152  149  150 1   
   153  149  152 1   
   154  149  158 1   
   155  150  151 2   
   156  150  163 1   
   157  152  153 1   
   158  152  159 1   
   159  152  160 1   
   160  153  154 1   
   161  153  161 1   
   162  153  162 1   
   163  154  155 1   
   164  154  156 1   
   165  163  164 1   
   166  163  168 1   
   167  164  165 1   
   168  164  166 1   
   169  164  167 1   
   170  170  171 1   
   171  170  172 1   
   172  173  174 1   
   173  173  175 1   
@<TRIPOS>SUBSTRUCTURE
     1 MOL         1 TEMP              0 ****  ****    0 ROOT
