@<TRIPOS>MOLECULE
MOL
  175   173     1     0     0
SMALL
resp


@<TRIPOS>ATOM
      1 C1         -1.3170    4.2320    5.6160 c3        1 MOL     -0.404432
      2 C2         -1.4800    3.7040    4.1230 c         1 MOL      0.779596
      3 O1         -0.5410    3.7630    3.3450 o         1 MOL     -0.618848
      4 H1         -2.0030    3.6920    6.2690 hc        1 MOL      0.096358
      5 H2         -0.2930    4.0660    5.9500 hc        1 MOL      0.096358
      6 H3         -1.5430    5.2980    5.6530 hc        1 MOL      0.096358
      7 N1         -2.5980    3.1450    3.7300 n         1 MOL     -0.680692
      8 C3         -2.7070    2.5470    2.3840 c3        1 MOL      0.322528
      9 C4         -2.9830    3.6360    1.2820 c         1 MOL      0.544201
     10 O2         -3.9670    4.3170    1.3830 o         1 MOL     -0.580104
     11 C5         -3.8220    1.4710    2.5040 c3        1 MOL      0.051792
     12 C6         -4.0750    0.6580    1.2570 c         1 MOL      0.435278
     13 O3         -5.0390   -0.1730    1.3310 o         1 MOL     -0.598216
     14 O4         -3.4640    0.9920    0.1980 o         1 MOL     -0.598216
     15 H4         -3.3310    2.9030    4.3750 hn        1 MOL      0.311174
     16 H5         -1.7330    2.1100    2.1850 h1        1 MOL     -0.133795
     17 H6         -4.7760    1.8590    2.8410 hc        1 MOL     -0.012570
     18 H7         -3.5050    0.7370    3.2480 hc        1 MOL     -0.012570
     19 N2         -2.1230    3.6670    0.2270 n         1 MOL     -0.234533
     20 C7         -1.9660    4.8670   -0.5720 c3        1 MOL      0.056247
     21 C8         -3.0620    5.0250   -1.7410 c         1 MOL      0.569557
     22 O5         -3.1020    6.0690   -2.4610 o         1 MOL     -0.569448
     23 C9         -0.5550    5.0020   -1.0790 c3        1 MOL     -0.339100
     24 H8         -1.4350    2.9250    0.1880 hn        1 MOL      0.262783
     25 H9         -2.2620    5.7130    0.0520 h1        1 MOL      0.061464
     26 H10         0.1080    4.9010   -0.2170 hc        1 MOL      0.106550
     27 H11        -0.3350    4.1390   -1.7020 hc        1 MOL      0.106550
     28 H12        -0.2450    5.9520   -1.5150 hc        1 MOL      0.106550
     29 N3         -4.0080    3.9990   -1.7840 n         1 MOL     -0.322008
     30 C10        -4.9410    3.7150   -2.8450 c3        1 MOL      0.036405
     31 C11        -6.1510    2.9030   -2.3200 c         1 MOL      0.345599
     32 O6         -7.1480    2.7240   -3.0040 o         1 MOL     -0.517007
     33 C12        -4.2520    2.8240   -3.8820 c3        1 MOL     -0.093651
     34 C13        -3.4930    1.5960   -3.2480 c         1 MOL      0.605628
     35 O7         -4.1770    0.4950   -3.0720 o         1 MOL     -0.661594
     36 O8         -2.3150    1.8090   -2.8970 o         1 MOL     -0.661594
     37 H13        -3.8110    3.3040   -1.0780 hn        1 MOL     -0.115513
     38 H14        -5.3160    4.6690   -3.2390 h1        1 MOL      0.094995
     39 H15        -3.4820    3.4430   -4.3560 hc        1 MOL      0.031918
     40 H16        -4.8760    2.5850   -4.7410 hc        1 MOL      0.031918
     41 N4         -6.0280    2.3910   -1.0980 n         1 MOL      0.018993
     42 C14        -7.1550    1.8360   -0.3630 c3        1 MOL     -0.497320
     43 C15        -7.5920    0.4110   -0.8130 c         1 MOL      0.589301
     44 O9         -8.7090    0.0200   -0.4990 o         1 MOL     -0.551455
     45 H17        -5.2940    2.7920   -0.5350 hn        1 MOL      0.270352
     46 H18        -8.0600    2.3860   -0.5940 h1        1 MOL      0.185727
     47 H19        -6.9760    1.8420    0.7170 h1        1 MOL      0.185727
     48 N5         -6.7730   -0.5330   -1.4270 n         1 MOL     -0.260139
     49 C16        -7.0700   -1.9100   -1.7090 c3        1 MOL      0.030883
     50 C17        -7.2750   -2.6820   -0.3980 c         1 MOL      0.392828
     51 O10        -8.2040   -3.5460   -0.3690 o         1 MOL     -0.579225
     52 C18        -6.0120   -2.5960   -2.7190 c3        1 MOL     -0.314481
     53 C19        -4.6270   -2.8820   -2.0870 c         1 MOL      0.621451
     54 N6         -4.0830   -3.9880   -2.4920 n         1 MOL     -0.692757
     55 O11        -4.0100   -2.1150   -1.3330 o         1 MOL     -0.465019
     56 H20        -5.8430   -0.2290   -1.6590 hn        1 MOL      0.140333
     57 H21        -8.0380   -2.0240   -2.2010 h1        1 MOL      0.082490
     58 H22        -5.8750   -2.0110   -3.6230 hc        1 MOL      0.115838
     59 H23        -6.4530   -3.5570   -2.9530 hc        1 MOL      0.115838
     60 H24        -4.4390   -4.6510   -3.1640 hn        1 MOL      0.328232
     61 H25        -3.1330   -4.1630   -2.1980 hn        1 MOL      0.328232
     62 N7         -6.5550   -2.3600    0.6710 n         1 MOL      0.023417
     63 C20        -6.6490   -3.0640    1.9440 c3        1 MOL     -0.207679
     64 C21        -5.2830   -3.3640    2.5810 c         1 MOL      0.602318
     65 O12        -5.2390   -3.8820    3.6570 o         1 MOL     -0.571355
     66 H26        -5.8760   -1.6250    0.5920 hn        1 MOL      0.094853
     67 H27        -7.1670   -4.0200    1.8420 h1        1 MOL      0.097141
     68 H28        -7.1940   -2.4200    2.6300 h1        1 MOL      0.097141
     69 N8         -4.1700   -2.9410    1.9050 n         1 MOL     -0.177180
     70 C22        -2.7890   -3.4060    2.1740 c3        1 MOL     -0.304807
     71 C23        -1.7240   -2.3140    1.8620 c         1 MOL      0.808457
     72 O13        -1.8600   -1.5130    0.9680 o         1 MOL     -0.503674
     73 C24        -2.4210   -4.7170    1.4980 c3        1 MOL      0.374761
     74 C25        -3.1130   -5.9730    2.0280 c3        1 MOL     -0.380841
     75 O14        -2.7910   -4.6610    0.0990 oh        1 MOL     -0.645933
     76 H29        -4.3320   -2.4900    1.0180 hn        1 MOL      0.020243
     77 H30        -2.7060   -3.7050    3.2230 h1        1 MOL      0.112225
     78 H31        -1.3470   -4.8910    1.5490 h1        1 MOL      0.058200
     79 H32        -3.5010   -5.2810   -0.0760 ho        1 MOL      0.375626
     80 H33        -4.2040   -5.9720    2.0840 hc        1 MOL      0.098614
     81 H34        -2.7850   -6.8400    1.4430 hc        1 MOL      0.098614
     82 H35        -2.7520   -6.3530    2.9830 hc        1 MOL      0.098614
     83 N9         -0.6020   -2.3140    2.5530 n         1 MOL     -0.541820
     84 C26         0.6590   -1.6760    2.0450 c3        1 MOL     -0.016261
     85 C27         1.6510   -2.6670    1.3830 c         1 MOL      0.502761
     86 O15         1.7570   -3.8910    1.6950 o         1 MOL     -0.582441
     87 C28         1.2540   -0.7230    3.1930 c3        1 MOL      0.053224
     88 C29         1.6700   -1.5630    4.4100 c3        1 MOL     -0.128086
     89 C30         0.1990    0.2990    3.6540 c3        1 MOL     -0.186282
     90 C31         2.1940   -0.7850    5.6300 c3        1 MOL     -0.162597
     91 H36        -0.6110   -2.9090    3.3610 hn        1 MOL      0.259512
     92 H37         0.3520   -0.9980    1.2460 h1        1 MOL      0.154565
     93 H38         2.1070   -0.1190    2.8700 hc        1 MOL     -0.036959
     94 H39         2.3260   -2.3260    4.0040 hc        1 MOL      0.048835
     95 H40         0.7780   -2.1420    4.6890 hc        1 MOL      0.048835
     96 H41         0.6080    0.9650    4.4060 hc        1 MOL      0.065054
     97 H42        -0.2990    0.8290    2.8360 hc        1 MOL      0.065054
     98 H43        -0.6750   -0.2030    4.0860 hc        1 MOL      0.065054
     99 H44         2.5070   -1.4450    6.4290 hc        1 MOL      0.049787
    100 H45         2.9370   -0.0190    5.3980 hc        1 MOL      0.049787
    101 H46         1.3430   -0.2110    5.9980 hc        1 MOL      0.049787
    102 N10         2.2760   -2.1050    0.3290 n         1 MOL     -0.322173
    103 C32         3.3230   -2.6930   -0.4790 c3        1 MOL      0.462837
    104 C33         4.6080   -1.7150   -0.2620 c         1 MOL      0.190016
    105 O16         4.4130   -0.5870    0.2540 o         1 MOL     -0.303410
    106 C34         2.8490   -2.8340   -1.9400 c3        1 MOL     -0.219591
    107 C35         3.8550   -3.4820   -2.8690 c         1 MOL      0.727347
    108 O17         3.6950   -3.3790   -4.1230 o         1 MOL     -0.729326
    109 O18         4.6910   -4.2090   -2.4310 o         1 MOL     -0.729326
    110 H47         2.1470   -1.1050    0.2180 hn        1 MOL      0.039114
    111 H48         3.5430   -3.7010   -0.1370 h1        1 MOL     -0.022712
    112 H49         2.6830   -1.8430   -2.3770 hc        1 MOL      0.029102
    113 H50         1.9240   -3.4140   -1.9190 hc        1 MOL      0.029102
    114 N11         5.8430   -2.1220   -0.6790 n         1 MOL     -0.556991
    115 C36         7.0610   -1.3950   -0.3320 c3        1 MOL      0.386374
    116 C37         7.0070    0.1590   -0.3940 c         1 MOL      0.411033
    117 O19         7.3130    0.7870    0.6060 o         1 MOL     -0.527779
    118 C38         8.2470   -2.0600   -1.1430 c3        1 MOL     -0.441883
    119 C39         9.6810   -1.5210   -0.9030 ca        1 MOL      0.080664
    120 C40        10.2370   -1.4800    0.4000 ca        1 MOL     -0.083579
    121 C41        10.3260   -0.9550   -1.9930 ca        1 MOL     -0.083579
    122 C42        11.4930   -0.9770    0.6200 ca        1 MOL     -0.140933
    123 C43        11.6700   -0.5550   -1.8050 ca        1 MOL     -0.140933
    124 C44        12.2370   -0.5390   -0.4940 ca        1 MOL     -0.139805
    125 H51         5.8750   -3.0490   -1.0900 hn        1 MOL      0.311334
    126 H52         7.2250   -1.4790    0.7430 h1        1 MOL      0.035453
    127 H53         7.9690   -1.9700   -2.1940 hc        1 MOL      0.148964
    128 H54         8.2370   -3.1200   -0.9320 hc        1 MOL      0.148964
    129 H55         9.7000   -1.8920    1.2380 ha        1 MOL      0.096356
    130 H56         9.9630   -1.1220   -2.9990 ha        1 MOL      0.096356
    131 H57        11.9260   -0.9390    1.6120 ha        1 MOL      0.113789
    132 H58        12.1500   -0.0720   -2.6470 ha        1 MOL      0.113789
    133 H59        13.2140   -0.1550   -0.2610 ha        1 MOL      0.108459
    134 N12         6.4540    0.7920   -1.4530 n         1 MOL     -0.195739
    135 C45         6.3690    2.2720   -1.6170 c3        1 MOL      0.049838
    136 C46         5.6000    2.9590   -0.4850 c         1 MOL      0.238272
    137 O20         5.8270    4.1480   -0.1410 o         1 MOL     -0.531321
    138 C47         5.6790    2.5390   -2.8940 c3        1 MOL      0.015855
    139 C48         5.9460    1.3030   -3.7830 c3        1 MOL     -0.118421
    140 C49         5.9170    0.2190   -2.6990 c3        1 MOL      0.020175
    141 H60         7.4050    2.6050   -1.6490 h1        1 MOL      0.065811
    142 H61         4.5980    2.6110   -2.7440 hc        1 MOL      0.016756
    143 H62         6.0870    3.4040   -3.4160 hc        1 MOL      0.016756
    144 H63         5.1240    1.1400   -4.4780 hc        1 MOL      0.048822
    145 H64         6.9270    1.2740   -4.2620 hc        1 MOL      0.048822
    146 H65         4.9380   -0.2690   -2.6950 h1        1 MOL      0.036695
    147 H66         6.5980   -0.5420   -3.1050 h1        1 MOL      0.036695
    148 N13         4.6580    2.2590    0.0890 n         1 MOL     -0.070887
    149 C50         3.6330    2.7760    1.0180 c3        1 MOL     -0.254491
    150 C51         4.2220    2.4690    2.4220 c         1 MOL      0.611984
    151 O21         4.0930    3.2810    3.3170 o         1 MOL     -0.587245
    152 C52         2.2690    2.0770    0.7670 c3        1 MOL     -0.051504
    153 C53         1.8330    1.8490   -0.6630 c3        1 MOL     -0.082318
    154 C54         0.5940    0.9830   -0.5540 c         1 MOL      0.474284
    155 O22         0.5620   -0.1340   -1.1430 o         1 MOL     -0.629052
    156 O23        -0.3970    1.4050    0.0610 o         1 MOL     -0.629052
    157 H67         4.4670    1.3210   -0.2330 hn        1 MOL      0.346677
    158 H68         3.5400    3.8480    0.8800 h1        1 MOL      0.131913
    159 H69         1.5790    2.7780    1.2450 hc        1 MOL      0.110989
    160 H70         2.2640    1.1210    1.2880 hc        1 MOL      0.110989
    161 H71         2.5690    1.2490   -1.1900 hc        1 MOL      0.031970
    162 H72         1.6160    2.7620   -1.2110 hc        1 MOL      0.031970
    163 N14         4.9810    1.3780    2.5690 n         1 MOL     -0.122649
    164 C55         5.8480    1.0950    3.7180 c3        1 MOL     -0.170694
    165 H73         5.2390    0.7560    4.5570 h1        1 MOL      0.070914
    166 H74         6.5630    0.3170    3.4520 h1        1 MOL      0.070914
    167 H75         6.3830    2.0000    4.0020 h1        1 MOL      0.070914
    168 H76         5.0670    0.7590    1.7700 hn        1 MOL      0.079286
    169 Ca1        -2.0590   -0.4300   -1.3080 Ca        1 MOL      1.733671
    170 O24        -0.8820   -2.9440   -1.7080 oh        1 MOL     -0.869654
    171 H77        -1.0130   -3.8690   -1.4950 ho        1 MOL      0.414092
    172 H78        -0.5030   -2.9540   -2.5770 ho        1 MOL      0.414092
    173 O25        -2.0210   -1.2680   -3.8830 oh        1 MOL     -0.869654
    174 H79        -2.6760   -1.4540   -4.5540 ho        1 MOL      0.414092
    175 H80        -1.1930   -1.2040   -4.3690 ho        1 MOL      0.414092
@<TRIPOS>BOND
     1    1    2 1   
     2    1    4 1   
     3    1    5 1   
     4    1    6 1   
     5    2    3 2   
     6    2    7 1   
     7    7    8 1   
     8    7   15 1   
     9    8    9 1   
    10    8   11 1   
    11    8   16 1   
    12    9   10 2   
    13    9   19 1   
    14   11   12 1   
    15   11   17 1   
    16   11   18 1   
    17   12   13 1   
    18   12   14 1   
    19   19   20 1   
    20   19   24 1   
    21   20   21 1   
    22   20   23 1   
    23   20   25 1   
    24   21   22 2   
    25   21   29 1   
    26   23   26 1   
    27   23   27 1   
    28   23   28 1   
    29   29   30 1   
    30   29   37 1   
    31   30   31 1   
    32   30   33 1   
    33   30   38 1   
    34   31   32 2   
    35   31   41 1   
    36   33   34 1   
    37   33   39 1   
    38   33   40 1   
    39   34   35 1   
    40   34   36 1   
    41   41   42 1   
    42   41   45 1   
    43   42   43 1   
    44   42   46 1   
    45   42   47 1   
    46   43   44 2   
    47   43   48 1   
    48   48   49 1   
    49   48   56 1   
    50   49   50 1   
    51   49   52 1   
    52   49   57 1   
    53   50   51 2   
    54   50   62 1   
    55   52   53 1   
    56   52   58 1   
    57   52   59 1   
    58   53   54 1   
    59   53   55 2   
    60   54   60 1   
    61   54   61 1   
    62   62   63 1   
    63   62   66 1   
    64   63   64 1   
    65   63   67 1   
    66   63   68 1   
    67   64   65 2   
    68   64   69 1   
    69   69   70 1   
    70   69   76 1   
    71   70   71 1   
    72   70   73 1   
    73   70   77 1   
    74   71   72 2   
    75   71   83 1   
    76   73   74 1   
    77   73   75 1   
    78   73   78 1   
    79   74   80 1   
    80   74   81 1   
    81   74   82 1   
    82   75   79 1   
    83   83   84 1   
    84   83   91 1   
    85   84   85 1   
    86   84   87 1   
    87   84   92 1   
    88   85   86 2   
    89   85  102 1   
    90   87   88 1   
    91   87   89 1   
    92   87   93 1   
    93   88   90 1   
    94   88   94 1   
    95   88   95 1   
    96   89   96 1   
    97   89   97 1   
    98   89   98 1   
    99   90   99 1   
   100   90  100 1   
   101   90  101 1   
   102  102  103 1   
   103  102  110 1   
   104  103  104 1   
   105  103  106 1   
   106  103  111 1   
   107  104  105 2   
   108  104  114 1   
   109  106  107 1   
   110  106  112 1   
   111  106  113 1   
   112  107  108 1   
   113  107  109 1   
   114  114  115 1   
   115  114  125 1   
   116  115  116 1   
   117  115  118 1   
   118  115  126 1   
   119  116  117 2   
   120  116  134 1   
   121  118  119 1   
   122  118  127 1   
   123  118  128 1   
   124  119  120 ar  
   125  119  121 ar  
   126  120  122 ar  
   127  120  129 1   
   128  121  123 ar  
   129  121  130 1   
   130  122  124 ar  
   131  122  131 1   
   132  123  124 ar  
   133  123  132 1   
   134  124  133 1   
   135  134  135 1   
   136  134  140 1   
   137  135  136 1   
   138  135  138 1   
   139  135  141 1   
   140  136  137 2   
   141  136  148 1   
   142  138  139 1   
   143  138  142 1   
   144  138  143 1   
   145  139  140 1   
   146  139  144 1   
   147  139  145 1   
   148  140  146 1   
   149  140  147 1   
   150  148  149 1   
   151  148  157 1   
   152  149  150 1   
   153  149  152 1   
   154  149  158 1   
   155  150  151 2   
   156  150  163 1   
   157  152  153 1   
   158  152  159 1   
   159  152  160 1   
   160  153  154 1   
   161  153  161 1   
   162  153  162 1   
   163  154  155 1   
   164  154  156 1   
   165  163  164 1   
   166  163  168 1   
   167  164  165 1   
   168  164  166 1   
   169  164  167 1   
   170  170  171 1   
   171  170  172 1   
   172  173  174 1   
   173  173  175 1   
@<TRIPOS>SUBSTRUCTURE
     1 MOL         1 TEMP              0 ****  ****    0 ROOT
