@<TRIPOS>MOLECULE
MOL
  186   183     1     0     0
SMALL
resp


@<TRIPOS>ATOM
      1 C1          1.0810   -1.0590    6.5850 c3        1 MOL     -0.277459
      2 C2          1.4420   -1.4350    5.0810 c         1 MOL      0.724829
      3 O1          0.5390   -1.8890    4.3910 o         1 MOL     -0.596166
      4 H1          0.4130   -1.8160    6.9980 hc        1 MOL      0.060002
      5 H2          1.9940   -1.0170    7.1790 hc        1 MOL      0.060002
      6 H3          0.5870   -0.0880    6.6090 hc        1 MOL      0.060002
      7 N1          2.6200   -1.0960    4.5070 n         1 MOL     -0.705123
      8 C3          2.8980   -1.4780    3.1010 c3        1 MOL      0.263669
      9 C4          3.0330   -3.0080    2.8320 c         1 MOL      0.421084
     10 O2          3.8560   -3.7690    3.4150 o         1 MOL     -0.582812
     11 C5          4.1730   -0.7820    2.6740 c3        1 MOL     -0.229158
     12 C6          4.7400   -1.1370    1.3180 c         1 MOL      0.773574
     13 O3          5.9450   -0.9120    1.1080 o         1 MOL     -0.704628
     14 O4          3.9620   -1.4120    0.4390 o         1 MOL     -0.704628
     15 H4          3.2620   -0.6140    5.1270 hn        1 MOL      0.343714
     16 H5          2.0430   -1.1420    2.5150 h1        1 MOL      0.030434
     17 H6          4.9540   -0.9660    3.4210 hc        1 MOL      0.033605
     18 H7          4.0020    0.2920    2.7080 hc        1 MOL      0.033605
     19 N2          2.1970   -3.4770    1.9440 n         1 MOL     -0.043709
     20 C7          1.9700   -4.8850    1.5280 c3        1 MOL     -0.333904
     21 C8          2.8280   -5.3820    0.4010 c         1 MOL      0.748077
     22 O5          3.1960   -6.5540    0.3860 o         1 MOL     -0.613559
     23 C9          0.4560   -5.0260    1.0430 c3        1 MOL      0.216428
     24 C10        -0.4770   -4.6330    2.2390 c3        1 MOL      0.226873
     25 C11         0.0730   -6.3550    0.4800 c3        1 MOL     -0.433524
     26 C12        -1.9820   -4.8380    2.0360 c3        1 MOL     -0.219059
     27 H8          1.5370   -2.8460    1.4990 hn        1 MOL      0.121134
     28 H9          1.9500   -5.5990    2.3420 h1        1 MOL      0.109333
     29 H10         0.2420   -4.2740    0.2770 hc        1 MOL      0.013422
     30 H11        -0.2750   -3.6080    2.5290 hc        1 MOL     -0.051211
     31 H12        -0.1160   -5.1830    3.1070 hc        1 MOL     -0.051211
     32 H13        -0.9730   -6.3320    0.1810 hc        1 MOL      0.097923
     33 H14         0.6050   -6.4170   -0.4730 hc        1 MOL      0.097923
     34 H15         0.2160   -7.2250    1.1320 hc        1 MOL      0.097923
     35 H16        -2.3240   -4.3600    1.1250 hc        1 MOL      0.041151
     36 H17        -2.1900   -5.9070    2.0850 hc        1 MOL      0.041151
     37 H18        -2.4580   -4.3420    2.8850 hc        1 MOL      0.041151
     38 N3          3.3540   -4.4540   -0.4370 n         1 MOL     -0.471933
     39 C13         3.8890   -4.8820   -1.7310 c3        1 MOL     -0.013779
     40 C14         5.3000   -4.2760   -2.0610 c         1 MOL      0.462945
     41 O6          5.9610   -4.8090   -2.9330 o         1 MOL     -0.565737
     42 C15         2.8590   -4.4650   -2.7910 c3        1 MOL     -0.095129
     43 C16         2.2870   -3.0570   -2.6060 c         1 MOL      0.717097
     44 O7          1.1100   -2.8440   -2.9540 o         1 MOL     -0.712623
     45 O8          3.0510   -2.0660   -2.3260 o         1 MOL     -0.712623
     46 H19         2.9270   -3.5530   -0.3340 hn        1 MOL      0.218269
     47 H20         3.9490   -5.9670   -1.8220 h1        1 MOL      0.088902
     48 H21         2.0100   -5.1360   -2.7820 hc        1 MOL      0.037615
     49 H22         3.2390   -4.5980   -3.8020 hc        1 MOL      0.037615
     50 N4          5.6770   -3.1500   -1.4030 n         1 MOL     -0.068467
     51 C17         7.0930   -2.7590   -1.1800 c3        1 MOL     -0.216505
     52 C18         7.3920   -1.4470   -1.9260 c         1 MOL      0.605969
     53 O9          7.8830   -1.5120   -3.0900 o         1 MOL     -0.573745
     54 H23         5.0680   -2.7480   -0.7020 hn        1 MOL      0.160776
     55 H24         7.7410   -3.5560   -1.5520 h1        1 MOL      0.081608
     56 H25         7.2710   -2.6870   -0.1080 h1        1 MOL      0.081608
     57 N5          7.2010   -0.2480   -1.3460 n         1 MOL     -0.594605
     58 C19         7.4490    1.0840   -1.8740 c3        1 MOL      0.274238
     59 C20         7.5640    2.2080   -0.7730 c         1 MOL      0.376117
     60 O10         7.8760    3.3350   -1.0610 o         1 MOL     -0.533411
     61 C21         6.3220    1.5710   -2.8630 c3        1 MOL     -0.310737
     62 C22         4.8390    1.3670   -2.3680 c         1 MOL      0.980180
     63 O11         3.9620    0.8940   -3.0710 o         1 MOL     -0.842929
     64 O12         4.5660    1.5170   -1.2130 o         1 MOL     -0.842929
     65 H26         6.6660   -0.2940   -0.4820 hn        1 MOL      0.323568
     66 H27         8.4100    1.2120   -2.3720 h1        1 MOL      0.029792
     67 H28         6.4600    0.9720   -3.7660 hc        1 MOL      0.062235
     68 H29         6.5210    2.6220   -3.0610 hc        1 MOL      0.062235
     69 N6          7.3100    1.9150    0.5110 n         1 MOL     -0.280365
     70 C23         7.3060    2.8780    1.6350 c3        1 MOL     -0.003421
     71 C24         5.9690    3.6400    1.7650 c         1 MOL      0.434710
     72 O13         5.9850    4.6890    2.4470 o         1 MOL     -0.599951
     73 H30         7.1710    0.9310    0.6600 hn        1 MOL      0.189821
     74 H31         8.0630    3.6420    1.4910 h1        1 MOL      0.062018
     75 H32         7.5490    2.4410    2.6080 h1        1 MOL      0.062018
     76 N7          4.9440    3.2650    1.0170 n         1 MOL     -0.210464
     77 C25         3.6450    3.9210    0.9190 c3        1 MOL      0.085942
     78 C26         2.4000    3.0320    0.9020 c         1 MOL      0.452595
     79 O14         2.5350    1.7930    0.8210 o         1 MOL     -0.579197
     80 C27         3.6750    4.7340   -0.4000 c3        1 MOL      0.022336
     81 C28         4.6340    5.9390   -0.3660 c3        1 MOL     -0.276017
     82 C29         4.7060    6.7620   -1.6350 c         1 MOL      0.709723
     83 N8          5.2590    7.9320   -1.5170 n         1 MOL     -0.822938
     84 O15         4.1600    6.4620   -2.6820 o         1 MOL     -0.568652
     85 H33         5.0120    2.4360    0.4420 hn        1 MOL      0.255597
     86 H34         3.5530    4.5730    1.7800 h1        1 MOL      0.022332
     87 H35         2.6730    5.0970   -0.6540 hc        1 MOL      0.027971
     88 H36         3.8630    3.9820   -1.1680 hc        1 MOL      0.027971
     89 H37         5.6560    5.7520   -0.0240 hc        1 MOL      0.081294
     90 H38         4.3410    6.6470    0.3970 hc        1 MOL      0.081294
     91 H39         5.6900    8.1610   -0.6410 hn        1 MOL      0.355161
     92 H40         5.0580    8.6390   -2.2150 hn        1 MOL      0.355161
     93 N9          1.2370    3.6030    1.1590 n         1 MOL     -0.324675
     94 C30        -0.0040    2.8720    1.5790 c3        1 MOL     -0.097923
     95 C31        -1.1140    3.4560    0.7180 c         1 MOL      0.534560
     96 O16        -1.2320    4.6640    0.6460 o         1 MOL     -0.564524
     97 C32        -0.2600    3.0570    3.1100 c3        1 MOL      0.176936
     98 C33        -1.5810    2.3740    3.4640 c3        1 MOL     -0.297947
     99 C34         0.9070    2.3330    3.8040 c3        1 MOL     -0.297947
    100 H41         1.2200    4.6110    1.1740 hn        1 MOL      0.246489
    101 H42         0.2010    1.8040    1.4720 h1        1 MOL      0.126550
    102 H43        -0.2510    4.0990    3.4120 hc        1 MOL     -0.004183
    103 H44        -2.4040    3.0320    3.1940 hc        1 MOL      0.075965
    104 H45        -1.6860    1.4390    2.9070 hc        1 MOL      0.075965
    105 H46        -1.6650    2.1870    4.5370 hc        1 MOL      0.075965
    106 H47         0.8280    2.4440    4.8790 hc        1 MOL      0.075965
    107 H48         0.7930    1.3010    3.4570 hc        1 MOL      0.075965
    108 H49         1.8630    2.7980    3.5930 hc        1 MOL      0.075965
    109 N10        -1.7750    2.5770   -0.1110 n         1 MOL     -0.372771
    110 C35        -2.9470    2.9240   -1.0140 c3        1 MOL      0.217946
    111 C36        -4.2650    2.4130   -0.3440 c         1 MOL      0.217295
    112 O17        -4.2590    1.6830    0.6360 o         1 MOL     -0.240819
    113 C37        -2.7250    2.4860   -2.4230 c3        1 MOL     -0.373851
    114 C38        -3.1330    1.0570   -2.7170 c         1 MOL      0.586154
    115 N11        -2.2750    0.1420   -2.4060 n         1 MOL     -0.785268
    116 O18        -4.2610    0.7510   -3.0210 o         1 MOL     -0.564896
    117 H50        -1.4130    1.6360   -0.0550 hn        1 MOL      0.225106
    118 H51        -3.1160    3.9980   -1.1050 h1        1 MOL      0.033793
    119 H52        -1.7030    2.6080   -2.7740 hc        1 MOL      0.122140
    120 H53        -3.3270    3.1140   -3.0830 hc        1 MOL      0.122140
    121 H54        -1.3680    0.3750   -2.0410 hn        1 MOL      0.416612
    122 H55        -2.4730   -0.7940   -2.7200 hn        1 MOL      0.416612
    123 N12        -5.3720    2.8100   -0.9150 n         1 MOL     -0.334534
    124 C39        -6.7500    2.4810   -0.4600 c3        1 MOL      0.038573
    125 C40        -6.9860    0.9520   -0.3160 c         1 MOL      0.690136
    126 O19        -7.5670    0.5110    0.6660 o         1 MOL     -0.613005
    127 C41        -7.8190    3.1200   -1.3290 c3        1 MOL     -0.292683
    128 C42        -9.2020    2.6140   -0.9510 ca        1 MOL      0.250786
    129 C43       -10.0990    3.3490   -0.2190 ca        1 MOL     -0.313955
    130 C44        -9.7260    1.4470   -1.5130 ca        1 MOL     -0.313955
    131 C45       -11.2610    2.7830    0.2020 ca        1 MOL     -0.145909
    132 C46       -10.9220    0.8360   -1.1690 ca        1 MOL     -0.145909
    133 C47       -11.7510    1.5470   -0.3360 ca        1 MOL      0.306228
    134 O20       -13.0600    1.1500   -0.0640 oh        1 MOL     -0.577750
    135 H56        -5.2980    3.4200   -1.7230 hn        1 MOL      0.265922
    136 H57        -6.8000    2.8940    0.5460 h1        1 MOL      0.082909
    137 H58        -7.6080    2.9180   -2.3750 hc        1 MOL      0.087618
    138 H59        -7.8090    4.1830   -1.0830 hc        1 MOL      0.087618
    139 H60        -9.8350    4.2910    0.2360 ha        1 MOL      0.151722
    140 H61        -9.1480    0.8460   -2.2100 ha        1 MOL      0.151722
    141 H62       -11.7380    3.3920    0.9580 ha        1 MOL      0.124863
    142 H63       -11.1780   -0.1330   -1.5870 ha        1 MOL      0.124863
    143 H64       -13.3360    0.4230   -0.6190 ho        1 MOL      0.403787
    144 N13        -6.3800    0.1160   -1.0940 n         1 MOL     -0.144984
    145 C48        -6.4710   -1.3820   -0.9400 c3        1 MOL     -0.357111
    146 C49        -5.6820   -1.8280    0.3850 c         1 MOL      0.490697
    147 O21        -6.1650   -2.6560    1.1570 o         1 MOL     -0.500086
    148 C50        -5.9960   -2.1540   -2.2200 c3        1 MOL      0.234824
    149 C51        -6.2390   -3.5750   -2.1990 c3        1 MOL     -0.361911
    150 C52        -5.8440   -4.1730   -3.5660 c         1 MOL      0.680933
    151 O22        -4.7390   -4.8180   -3.6900 o         1 MOL     -0.722785
    152 O23        -6.5790   -3.8440   -4.5150 o         1 MOL     -0.722785
    153 H65        -5.8650    0.4820   -1.8870 hn        1 MOL      0.107859
    154 H66        -7.5230   -1.5960   -0.7190 h1        1 MOL      0.159251
    155 H67        -4.9120   -2.0550   -2.1890 hc        1 MOL      0.018044
    156 H68        -6.3770   -1.7330   -3.1550 hc        1 MOL      0.018044
    157 H69        -7.2500   -3.8950   -1.9370 hc        1 MOL      0.057377
    158 H70        -5.6480   -3.9500   -1.3660 hc        1 MOL      0.057377
    159 N14        -4.4720   -1.2440    0.6180 n         1 MOL     -0.260047
    160 C53        -3.6300   -1.5020    1.7960 c3        1 MOL     -0.068570
    161 C54        -4.3140   -0.9060    3.0650 c         1 MOL      0.383107
    162 O24        -4.2410   -1.5130    4.1470 o         1 MOL     -0.558356
    163 C55        -2.2100   -0.8930    1.5880 c3        1 MOL     -0.013219
    164 C56        -1.4160   -1.5500    0.5270 c3        1 MOL      0.210857
    165 C57        -0.0630   -0.8930    0.2630 c         1 MOL      0.716935
    166 O25         1.0420   -1.4960    0.4220 o         1 MOL     -0.712040
    167 O26        -0.0320    0.2290   -0.3130 o         1 MOL     -0.712040
    168 H71        -4.2360   -0.3920    0.1280 hn        1 MOL      0.214246
    169 H72        -3.4950   -2.5480    2.0540 h1        1 MOL      0.120142
    170 H73        -1.6500   -1.0140    2.5170 hc        1 MOL      0.044449
    171 H74        -2.2080    0.1510    1.2570 hc        1 MOL      0.044449
    172 H75        -1.9320   -1.5100   -0.4400 hc        1 MOL     -0.083179
    173 H76        -1.1810   -2.5980    0.7010 hc        1 MOL     -0.083179
    174 N15        -4.9930    0.2000    2.9270 n         1 MOL      0.042631
    175 C58        -5.5850    0.9380    4.0390 c3        1 MOL     -0.298546
    176 H77        -6.2070    0.2660    4.6300 h1        1 MOL      0.095272
    177 H78        -4.7940    1.3460    4.6670 h1        1 MOL      0.095272
    178 H79        -6.1980    1.7520    3.6500 h1        1 MOL      0.095272
    179 H80        -4.9670    0.6800    2.0310 hn        1 MOL     -0.023032
    180 Ca1         2.3590    0.1600   -1.2080 Ca        1 MOL      1.805360
    181 O27         1.4660    2.6750   -2.5240 oh        1 MOL     -0.866594
    182 H81         0.8150    2.4170   -3.1820 ho        1 MOL      0.404722
    183 H82         2.0000    3.3370   -2.9640 ho        1 MOL      0.404722
    184 O28         0.5350   -0.2510   -3.1510 oh        1 MOL     -0.866594
    185 H83         0.2180    0.0620   -4.0000 ho        1 MOL      0.404722
    186 H84         0.5880   -1.2100   -3.2510 ho        1 MOL      0.404722
@<TRIPOS>BOND
     1    1    2 1   
     2    1    4 1   
     3    1    5 1   
     4    1    6 1   
     5    2    3 2   
     6    2    7 1   
     7    7    8 1   
     8    7   15 1   
     9    8    9 1   
    10    8   11 1   
    11    8   16 1   
    12    9   10 2   
    13    9   19 1   
    14   11   12 1   
    15   11   17 1   
    16   11   18 1   
    17   12   13 1   
    18   12   14 1   
    19   19   20 1   
    20   19   27 1   
    21   20   21 1   
    22   20   23 1   
    23   20   28 1   
    24   21   22 2   
    25   21   38 1   
    26   23   24 1   
    27   23   25 1   
    28   23   29 1   
    29   24   26 1   
    30   24   30 1   
    31   24   31 1   
    32   25   32 1   
    33   25   33 1   
    34   25   34 1   
    35   26   35 1   
    36   26   36 1   
    37   26   37 1   
    38   38   39 1   
    39   38   46 1   
    40   39   40 1   
    41   39   42 1   
    42   39   47 1   
    43   40   41 2   
    44   40   50 1   
    45   42   43 1   
    46   42   48 1   
    47   42   49 1   
    48   43   44 1   
    49   43   45 1   
    50   50   51 1   
    51   50   54 1   
    52   51   52 1   
    53   51   55 1   
    54   51   56 1   
    55   52   53 2   
    56   52   57 1   
    57   57   58 1   
    58   57   65 1   
    59   58   59 1   
    60   58   61 1   
    61   58   66 1   
    62   59   60 2   
    63   59   69 1   
    64   61   62 1   
    65   61   67 1   
    66   61   68 1   
    67   62   63 1   
    68   62   64 1   
    69   69   70 1   
    70   69   73 1   
    71   70   71 1   
    72   70   74 1   
    73   70   75 1   
    74   71   72 2   
    75   71   76 1   
    76   76   77 1   
    77   76   85 1   
    78   77   78 1   
    79   77   80 1   
    80   77   86 1   
    81   78   79 2   
    82   78   93 1   
    83   80   81 1   
    84   80   87 1   
    85   80   88 1   
    86   81   82 1   
    87   81   89 1   
    88   81   90 1   
    89   82   83 1   
    90   82   84 2   
    91   83   91 1   
    92   83   92 1   
    93   93   94 1   
    94   93  100 1   
    95   94   95 1   
    96   94   97 1   
    97   94  101 1   
    98   95   96 2   
    99   95  109 1   
   100   97   98 1   
   101   97   99 1   
   102   97  102 1   
   103   98  103 1   
   104   98  104 1   
   105   98  105 1   
   106   99  106 1   
   107   99  107 1   
   108   99  108 1   
   109  109  110 1   
   110  109  117 1   
   111  110  111 1   
   112  110  113 1   
   113  110  118 1   
   114  111  112 2   
   115  111  123 1   
   116  113  114 1   
   117  113  119 1   
   118  113  120 1   
   119  114  115 1   
   120  114  116 2   
   121  115  121 1   
   122  115  122 1   
   123  123  124 1   
   124  123  135 1   
   125  124  125 1   
   126  124  127 1   
   127  124  136 1   
   128  125  126 2   
   129  125  144 1   
   130  127  128 1   
   131  127  137 1   
   132  127  138 1   
   133  128  129 ar  
   134  128  130 ar  
   135  129  131 ar  
   136  129  139 1   
   137  130  132 ar  
   138  130  140 1   
   139  131  133 ar  
   140  131  141 1   
   141  132  133 ar  
   142  132  142 1   
   143  133  134 1   
   144  134  143 1   
   145  144  145 1   
   146  144  153 1   
   147  145  146 1   
   148  145  148 1   
   149  145  154 1   
   150  146  147 2   
   151  146  159 1   
   152  148  149 1   
   153  148  155 1   
   154  148  156 1   
   155  149  150 1   
   156  149  157 1   
   157  149  158 1   
   158  150  151 1   
   159  150  152 1   
   160  159  160 1   
   161  159  168 1   
   162  160  161 1   
   163  160  163 1   
   164  160  169 1   
   165  161  162 2   
   166  161  174 1   
   167  163  164 1   
   168  163  170 1   
   169  163  171 1   
   170  164  165 1   
   171  164  172 1   
   172  164  173 1   
   173  165  166 1   
   174  165  167 1   
   175  174  175 1   
   176  174  179 1   
   177  175  176 1   
   178  175  177 1   
   179  175  178 1   
   180  181  182 1   
   181  181  183 1   
   182  184  185 1   
   183  184  186 1   
@<TRIPOS>SUBSTRUCTURE
     1 MOL         1 TEMP              0 ****  ****    0 ROOT
