@<TRIPOS>MOLECULE
MOL
  175   173     1     0     0
SMALL
resp


@<TRIPOS>ATOM
      1 C1          1.2730   -3.1000    6.2180 c3        1 MOL     -0.270707
      2 C2          1.2180   -2.8720    4.6960 c         1 MOL      0.808505
      3 O1          0.3260   -3.4240    4.0530 o         1 MOL     -0.587044
      4 H1          1.7110   -2.2250    6.6990 hc        1 MOL      0.052642
      5 H2          0.2650   -3.2570    6.5990 hc        1 MOL      0.052642
      6 H3          1.8840   -3.9760    6.4320 hc        1 MOL      0.052642
      7 N1          2.2130   -2.2140    4.1710 n         1 MOL     -0.640466
      8 C3          2.3980   -2.0280    2.7300 c3        1 MOL      0.032032
      9 C4          2.6580   -3.3320    1.9890 c         1 MOL      0.523161
     10 O2          3.2770   -4.2400    2.5210 o         1 MOL     -0.554934
     11 C5          3.6370   -1.1360    2.4950 c3        1 MOL      0.186249
     12 C6          4.0410   -0.8080    1.0420 c         1 MOL      0.348450
     13 O3          5.0080   -1.4600    0.5480 o         1 MOL     -0.583623
     14 O4          3.3450    0.0680    0.4530 o         1 MOL     -0.583623
     15 H4          2.9300   -1.8750    4.7840 hn        1 MOL      0.316160
     16 H5          1.5380   -1.5230    2.2950 h1        1 MOL      0.046185
     17 H6          4.5450   -1.4790    2.9930 hc        1 MOL     -0.050135
     18 H7          3.4510   -0.1440    2.8850 hc        1 MOL     -0.050135
     19 N2          2.1740   -3.3700    0.7400 n         1 MOL     -0.310567
     20 C7          2.0930   -4.5860   -0.0140 c3        1 MOL      0.188707
     21 C8          3.1740   -4.8480   -1.0840 c         1 MOL      0.525915
     22 O5          3.1340   -5.9430   -1.6680 o         1 MOL     -0.545920
     23 C9          0.7010   -4.7250   -0.6030 c3        1 MOL     -0.269834
     24 H8          1.7640   -2.5120    0.4020 hn        1 MOL      0.222142
     25 H9          2.2890   -5.3510    0.7380 h1        1 MOL      0.021359
     26 H10         0.5540   -5.7430   -0.9770 hc        1 MOL      0.075728
     27 H11        -0.0910   -4.4980    0.1100 hc        1 MOL      0.075728
     28 H12         0.5270   -3.9460   -1.3400 hc        1 MOL      0.075728
     29 N3          4.0400   -3.8410   -1.3890 n         1 MOL     -0.593601
     30 C10         4.6650   -3.6930   -2.6490 c3        1 MOL      0.241316
     31 C11         5.9720   -2.8480   -2.5640 c         1 MOL      0.379888
     32 O6          6.4440   -2.3390   -3.5600 o         1 MOL     -0.500618
     33 C12         3.6110   -3.1470   -3.7130 c3        1 MOL     -0.148704
     34 C13         2.9760   -1.8980   -3.2450 c         1 MOL      0.856162
     35 O7          1.7170   -1.7280   -3.2300 o         1 MOL     -0.770659
     36 O8          3.7390   -0.9480   -2.9460 o         1 MOL     -0.770659
     37 H13         3.8030   -2.9570   -0.9660 hn        1 MOL      0.266292
     38 H14         4.9220   -4.6660   -3.0620 h1        1 MOL      0.046163
     39 H15         2.7050   -3.7440   -3.7950 hc        1 MOL      0.013947
     40 H16         4.1420   -3.0360   -4.6610 hc        1 MOL      0.013947
     41 N4          6.6420   -2.8820   -1.3880 n         1 MOL     -0.314728
     42 C14         8.0010   -2.4420   -1.2980 c3        1 MOL     -0.092278
     43 C15         8.1460   -0.8980   -1.1920 c         1 MOL      0.559899
     44 O9          9.3090   -0.4840   -1.1880 o         1 MOL     -0.603254
     45 H17         6.1520   -3.2810   -0.6040 hn        1 MOL      0.273477
     46 H18         8.7230   -2.7920   -2.0380 h1        1 MOL      0.076363
     47 H19         8.3620   -2.8110   -0.3450 h1        1 MOL      0.076363
     48 N5          7.0820   -0.1250   -1.0040 n         1 MOL     -0.334780
     49 C16         7.1340    1.3450   -1.0530 c3        1 MOL     -0.022911
     50 C17         6.7270    2.1040    0.2340 c         1 MOL      0.371280
     51 O10         6.9060    3.3020    0.2380 o         1 MOL     -0.494153
     52 C18         6.4370    1.7210   -2.3750 c3        1 MOL     -0.090114
     53 C19         5.1710    2.5210   -2.1900 c         1 MOL      0.709883
     54 N6          5.1100    3.7640   -2.6300 n         1 MOL     -0.821404
     55 O11         4.1990    1.9830   -1.7260 o         1 MOL     -0.630451
     56 H20         6.1460   -0.5230   -0.9980 hn        1 MOL      0.255059
     57 H21         8.1910    1.5940   -1.1230 h1        1 MOL      0.111596
     58 H22         6.1510    0.9050   -3.0420 hc        1 MOL      0.053918
     59 H23         7.0610    2.3730   -2.9830 hc        1 MOL      0.053918
     60 H24         5.9610    4.2600   -2.8540 hn        1 MOL      0.369482
     61 H25         4.2060    4.1810   -2.7600 hn        1 MOL      0.369482
     62 N7          6.3070    1.3980    1.2680 n         1 MOL     -0.148933
     63 C20         5.9830    1.9310    2.5330 c3        1 MOL     -0.041183
     64 C21         4.8850    3.0420    2.5110 c         1 MOL      0.396953
     65 O12         5.1870    4.1730    2.8930 o         1 MOL     -0.546466
     66 H26         6.3180    0.3970    1.1270 hn        1 MOL      0.180129
     67 H27         6.8830    2.3240    3.0060 h1        1 MOL      0.064529
     68 H28         5.6930    1.1130    3.1940 h1        1 MOL      0.064529
     69 N8          3.7360    2.8450    1.9130 n         1 MOL     -0.143107
     70 C22         2.6790    3.8420    1.7910 c3        1 MOL     -0.427809
     71 C23         1.3740    3.0740    1.4740 c         1 MOL      0.648464
     72 O13         1.4420    2.2910    0.5320 o         1 MOL     -0.625873
     73 C24         3.0350    4.8350    0.6760 c3        1 MOL      0.623731
     74 C25         1.7750    5.7250    0.4710 c3        1 MOL     -0.442916
     75 O14         4.0550    5.7000    0.9690 oh        1 MOL     -0.624419
     76 H29         3.5460    1.9430    1.4990 hn        1 MOL      0.238560
     77 H30         2.6170    4.3890    2.7360 h1        1 MOL      0.125598
     78 H31         3.1790    4.3130   -0.2730 h1        1 MOL     -0.027964
     79 H32         4.2250    5.4970    1.8980 ho        1 MOL      0.388728
     80 H33         1.0030    5.2560   -0.1450 hc        1 MOL      0.093950
     81 H34         1.3340    6.1500    1.3670 hc        1 MOL      0.093950
     82 H35         2.1380    6.6170   -0.0440 hc        1 MOL      0.093950
     83 N9          0.2440    3.1290    2.2230 n         1 MOL     -0.383524
     84 C26        -0.8920    2.2220    2.0180 c3        1 MOL     -0.093795
     85 C27        -1.9260    2.9540    1.1600 c         1 MOL      0.435007
     86 O15        -2.5660    3.8840    1.6200 o         1 MOL     -0.539429
     87 C28        -1.4000    1.4920    3.3250 c3        1 MOL      0.306239
     88 C29        -1.9010    2.2380    4.5230 c3        1 MOL     -0.010289
     89 C30        -0.3190    0.5490    3.8010 c3        1 MOL     -0.189026
     90 C31        -2.3430    1.3670    5.6560 c3        1 MOL     -0.087637
     91 H36         0.1380    3.8650    2.9030 hn        1 MOL      0.262336
     92 H37        -0.5350    1.3770    1.4230 h1        1 MOL      0.107644
     93 H38        -2.2660    0.8930    3.0450 hc        1 MOL     -0.071814
     94 H39        -2.7060    2.8790    4.1650 hc        1 MOL     -0.017489
     95 H40        -1.0750    2.8680    4.8750 hc        1 MOL     -0.017489
     96 H41         0.5150    1.1430    4.1730 hc        1 MOL      0.020038
     97 H42        -0.6150   -0.2000    4.5310 hc        1 MOL      0.020038
     98 H43        -0.0500   -0.0030    2.8960 hc        1 MOL      0.020038
     99 H44        -2.9740    0.5750    5.2610 hc        1 MOL      0.017361
    100 H45        -1.5570    0.9210    6.2690 hc        1 MOL      0.017361
    101 H46        -2.9390    1.9930    6.3230 hc        1 MOL      0.017361
    102 N10        -2.1000    2.3630   -0.0360 n         1 MOL     -0.358248
    103 C32        -3.3020    2.5310   -0.8610 c3        1 MOL      0.224468
    104 C33        -4.4430    1.5390   -0.5210 c         1 MOL      0.485375
    105 O16        -4.3890    0.8850    0.5630 o         1 MOL     -0.429992
    106 C34        -2.8030    2.3490   -2.3210 c3        1 MOL     -0.309299
    107 C35        -3.5780    3.0320   -3.4010 c         1 MOL      0.747086
    108 O17        -3.1560    3.0430   -4.5570 o         1 MOL     -0.726947
    109 O18        -4.6050    3.6640   -3.0800 o         1 MOL     -0.726947
    110 H47        -1.4480    1.6880   -0.4000 hn        1 MOL      0.339332
    111 H48        -3.7310    3.4990   -0.6090 h1        1 MOL      0.044703
    112 H49        -2.7550    1.2880   -2.5840 hc        1 MOL      0.061377
    113 H50        -1.8260    2.8310   -2.3400 hc        1 MOL      0.061377
    114 N11        -5.5350    1.5650   -1.3050 n         1 MOL     -0.660592
    115 C36        -6.8220    1.0520   -0.8750 c3        1 MOL      0.617576
    116 C37        -6.8340   -0.4520   -0.5340 c         1 MOL      0.150396
    117 O19        -7.3810   -0.8090    0.5570 o         1 MOL     -0.475956
    118 C38        -7.9430    1.3910   -1.9140 c3        1 MOL     -0.277171
    119 C39        -9.3270    0.9550   -1.4710 ca        1 MOL      0.221815
    120 C40        -9.9530    1.6000   -0.3580 ca        1 MOL     -0.280070
    121 C41       -10.0260    0.0360   -2.2720 ca        1 MOL     -0.280070
    122 C42       -11.2550    1.2460   -0.0080 ca        1 MOL      0.019849
    123 C43       -11.3470   -0.1800   -1.9780 ca        1 MOL      0.019849
    124 C44       -11.9990    0.3730   -0.8850 ca        1 MOL     -0.268195
    125 H51        -5.5650    2.1630   -2.1140 hn        1 MOL      0.255846
    126 H52        -7.1160    1.5870    0.0240 h1        1 MOL     -0.024136
    127 H53        -7.7370    1.0030   -2.9140 hc        1 MOL      0.084877
    128 H54        -8.0810    2.4630   -2.0680 hc        1 MOL      0.084877
    129 H55        -9.3020    2.2380    0.2270 ha        1 MOL      0.137456
    130 H56        -9.5520   -0.4080   -3.1410 ha        1 MOL      0.137456
    131 H57       -11.7060    1.6950    0.8610 ha        1 MOL      0.077333
    132 H58       -11.9260   -0.8600   -2.5920 ha        1 MOL      0.077333
    133 H59       -13.0190    0.0980   -0.6850 ha        1 MOL      0.128765
    134 N12        -6.2250   -1.3510   -1.3560 n         1 MOL     -0.010733
    135 C45        -6.2600   -2.7910   -0.9790 c3        1 MOL      0.070017
    136 C46        -5.4050   -3.1270    0.2930 c         1 MOL      0.343867
    137 O20        -5.8220   -3.9510    1.1280 o         1 MOL     -0.496521
    138 C47        -5.7290   -3.4860   -2.2460 c3        1 MOL     -0.196308
    139 C48        -5.9310   -2.4840   -3.4010 c3        1 MOL      0.023115
    140 C49        -5.6180   -1.1640   -2.6850 c3        1 MOL     -0.228417
    141 H60        -7.2470   -3.2200   -0.8310 h1        1 MOL      0.070920
    142 H61        -4.6550   -3.6530   -2.2110 hc        1 MOL      0.071463
    143 H62        -6.2290   -4.4470   -2.4060 hc        1 MOL      0.071463
    144 H63        -5.3310   -2.6650   -4.2920 hc        1 MOL      0.020931
    145 H64        -6.9180   -2.3500   -3.8560 hc        1 MOL      0.020931
    146 H65        -4.5390   -1.0530   -2.7450 h1        1 MOL      0.118863
    147 H66        -6.1370   -0.4470   -3.3340 h1        1 MOL      0.118863
    148 N13        -4.3470   -2.3010    0.5460 n         1 MOL     -0.251529
    149 C50        -3.3440   -2.3680    1.6170 c3        1 MOL     -0.069216
    150 C51        -4.0370   -1.8890    2.8580 c         1 MOL      0.467230
    151 O21        -3.9660   -2.5870    3.8560 o         1 MOL     -0.574856
    152 C52        -2.1260   -1.4870    1.1810 c3        1 MOL      0.000900
    153 C53        -1.6100   -1.7620   -0.2600 c3        1 MOL     -0.179430
    154 C54        -0.4550   -0.7890   -0.5220 c         1 MOL      0.707940
    155 O22         0.7340   -1.1220   -0.1500 o         1 MOL     -0.722716
    156 O23        -0.5840    0.1600   -1.2990 o         1 MOL     -0.722716
    157 H67        -4.2410   -1.6590   -0.2260 hn        1 MOL      0.211625
    158 H68        -3.0670   -3.4130    1.7180 h1        1 MOL      0.125871
    159 H69        -1.2820   -1.6230    1.8520 hc        1 MOL      0.039638
    160 H70        -2.3130   -0.4080    1.2360 hc        1 MOL      0.039638
    161 H71        -2.4010   -1.5980   -0.9920 hc        1 MOL      0.049094
    162 H72        -1.2530   -2.7950   -0.3470 hc        1 MOL      0.049094
    163 N14        -4.7210   -0.7220    2.8310 n         1 MOL      0.109905
    164 C55        -5.5910   -0.1300    3.8730 c3        1 MOL     -0.285363
    165 H73        -5.3900    0.9390    3.9490 h1        1 MOL      0.092968
    166 H74        -6.6350   -0.2840    3.6060 h1        1 MOL      0.092968
    167 H75        -5.3850   -0.6060    4.8320 h1        1 MOL      0.092968
    168 H76        -4.7750   -0.2850    1.9210 hn        1 MOL      0.009122
    169 Ca1         1.9650    0.6260   -1.7190 Ca        1 MOL      1.738916
    170 O24         1.9430    1.4300   -4.4250 oh        1 MOL     -0.854078
    171 H77         1.0410    1.5850   -4.6850 ho        1 MOL      0.415923
    172 H78         2.4210    1.3340   -5.2490 ho        1 MOL      0.415923
    173 O25         0.7670    3.1120   -2.4000 oh        1 MOL     -0.854078
    174 H79         0.5300    2.9550   -3.3090 ho        1 MOL      0.415923
    175 H80         1.2030    3.9590   -2.4040 ho        1 MOL      0.415923
@<TRIPOS>BOND
     1    1    2 1   
     2    1    4 1   
     3    1    5 1   
     4    1    6 1   
     5    2    3 2   
     6    2    7 1   
     7    7    8 1   
     8    7   15 1   
     9    8    9 1   
    10    8   11 1   
    11    8   16 1   
    12    9   10 2   
    13    9   19 1   
    14   11   12 1   
    15   11   17 1   
    16   11   18 1   
    17   12   13 1   
    18   12   14 1   
    19   19   20 1   
    20   19   24 1   
    21   20   21 1   
    22   20   23 1   
    23   20   25 1   
    24   21   22 2   
    25   21   29 1   
    26   23   26 1   
    27   23   27 1   
    28   23   28 1   
    29   29   30 1   
    30   29   37 1   
    31   30   31 1   
    32   30   33 1   
    33   30   38 1   
    34   31   32 2   
    35   31   41 1   
    36   33   34 1   
    37   33   39 1   
    38   33   40 1   
    39   34   35 1   
    40   34   36 1   
    41   41   42 1   
    42   41   45 1   
    43   42   43 1   
    44   42   46 1   
    45   42   47 1   
    46   43   44 2   
    47   43   48 1   
    48   48   49 1   
    49   48   56 1   
    50   49   50 1   
    51   49   52 1   
    52   49   57 1   
    53   50   51 2   
    54   50   62 1   
    55   52   53 1   
    56   52   58 1   
    57   52   59 1   
    58   53   54 1   
    59   53   55 2   
    60   54   60 1   
    61   54   61 1   
    62   62   63 1   
    63   62   66 1   
    64   63   64 1   
    65   63   67 1   
    66   63   68 1   
    67   64   65 2   
    68   64   69 1   
    69   69   70 1   
    70   69   76 1   
    71   70   71 1   
    72   70   73 1   
    73   70   77 1   
    74   71   72 2   
    75   71   83 1   
    76   73   74 1   
    77   73   75 1   
    78   73   78 1   
    79   74   80 1   
    80   74   81 1   
    81   74   82 1   
    82   75   79 1   
    83   83   84 1   
    84   83   91 1   
    85   84   85 1   
    86   84   87 1   
    87   84   92 1   
    88   85   86 2   
    89   85  102 1   
    90   87   88 1   
    91   87   89 1   
    92   87   93 1   
    93   88   90 1   
    94   88   94 1   
    95   88   95 1   
    96   89   96 1   
    97   89   97 1   
    98   89   98 1   
    99   90   99 1   
   100   90  100 1   
   101   90  101 1   
   102  102  103 1   
   103  102  110 1   
   104  103  104 1   
   105  103  106 1   
   106  103  111 1   
   107  104  105 2   
   108  104  114 1   
   109  106  107 1   
   110  106  112 1   
   111  106  113 1   
   112  107  108 1   
   113  107  109 1   
   114  114  115 1   
   115  114  125 1   
   116  115  116 1   
   117  115  118 1   
   118  115  126 1   
   119  116  117 2   
   120  116  134 1   
   121  118  119 1   
   122  118  127 1   
   123  118  128 1   
   124  119  120 ar  
   125  119  121 ar  
   126  120  122 ar  
   127  120  129 1   
   128  121  123 ar  
   129  121  130 1   
   130  122  124 ar  
   131  122  131 1   
   132  123  124 ar  
   133  123  132 1   
   134  124  133 1   
   135  134  135 1   
   136  134  140 1   
   137  135  136 1   
   138  135  138 1   
   139  135  141 1   
   140  136  137 2   
   141  136  148 1   
   142  138  139 1   
   143  138  142 1   
   144  138  143 1   
   145  139  140 1   
   146  139  144 1   
   147  139  145 1   
   148  140  146 1   
   149  140  147 1   
   150  148  149 1   
   151  148  157 1   
   152  149  150 1   
   153  149  152 1   
   154  149  158 1   
   155  150  151 2   
   156  150  163 1   
   157  152  153 1   
   158  152  159 1   
   159  152  160 1   
   160  153  154 1   
   161  153  161 1   
   162  153  162 1   
   163  154  155 1   
   164  154  156 1   
   165  163  164 1   
   166  163  168 1   
   167  164  165 1   
   168  164  166 1   
   169  164  167 1   
   170  170  171 1   
   171  170  172 1   
   172  173  174 1   
   173  173  175 1   
@<TRIPOS>SUBSTRUCTURE
     1 MOL         1 TEMP              0 ****  ****    0 ROOT
