@<TRIPOS>MOLECULE
MOL
  175   173     1     0     0
SMALL
resp


@<TRIPOS>ATOM
      1 C1          0.5820    4.5050    5.3960 c3        1 MOL     -0.328014
      2 C2          0.0370    4.1340    3.9970 c         1 MOL      0.672266
      3 O1          0.7870    4.2180    3.0290 o         1 MOL     -0.516471
      4 H1          0.2160    5.4920    5.6780 hc        1 MOL      0.085225
      5 H2          0.2420    3.7700    6.1260 hc        1 MOL      0.085225
      6 H3          1.6710    4.5170    5.3700 hc        1 MOL      0.085225
      7 N1         -1.3310    4.0290    3.7810 n         1 MOL     -0.698673
      8 C3         -1.9650    3.6870    2.5220 c3        1 MOL      0.275179
      9 C4         -2.1290    4.8790    1.5690 c         1 MOL      0.722573
     10 O2         -2.7110    5.8890    1.9500 o         1 MOL     -0.614348
     11 C5         -3.2670    3.0640    2.8330 c3        1 MOL     -0.314623
     12 C6         -4.0070    2.3890    1.6710 c         1 MOL      0.805453
     13 O3         -5.2410    2.1580    1.7770 o         1 MOL     -0.711018
     14 O4         -3.3600    2.1500    0.6280 o         1 MOL     -0.711018
     15 H4         -1.8470    3.8640    4.6260 hn        1 MOL      0.317691
     16 H5         -1.2650    2.9830    2.0680 h1        1 MOL      0.088041
     17 H6         -3.9670    3.8180    3.1950 hc        1 MOL      0.040230
     18 H7         -3.0840    2.3170    3.6100 hc        1 MOL      0.040230
     19 N2         -1.6420    4.6180    0.3330 n         1 MOL     -0.714702
     20 C7         -1.7520    5.5500   -0.7590 c3        1 MOL      0.467174
     21 C8         -2.7120    5.0770   -1.9460 c         1 MOL      0.368433
     22 O5         -2.5870    5.6470   -3.0660 o         1 MOL     -0.541907
     23 C9         -0.3550    5.8920   -1.1850 c3        1 MOL     -0.243071
     24 H8         -1.3440    3.6690    0.1510 hn        1 MOL      0.354829
     25 H9         -2.2070    6.4990   -0.4680 h1        1 MOL     -0.034536
     26 H10        -0.4650    6.6250   -1.9870 hc        1 MOL      0.047204
     27 H11         0.2890    6.1440   -0.3510 hc        1 MOL      0.047204
     28 H12         0.1480    5.0340   -1.6330 hc        1 MOL      0.047204
     29 N3         -3.5240    4.0290   -1.7740 n         1 MOL     -0.271815
     30 C10        -4.4230    3.5410   -2.8070 c3        1 MOL      0.031456
     31 C11        -5.6950    2.7460   -2.4660 c         1 MOL      0.414747
     32 O6         -6.6430    2.5780   -3.2580 o         1 MOL     -0.547983
     33 C12        -3.6520    2.6680   -3.8350 c3        1 MOL     -0.132790
     34 C13        -2.9910    1.3950   -3.3920 c         1 MOL      0.690432
     35 O7         -3.3280    0.9490   -2.2480 o         1 MOL     -0.688251
     36 O8         -1.9790    0.9710   -4.0020 o         1 MOL     -0.688251
     37 H13        -3.5390    3.6350   -0.8400 hn        1 MOL      0.125319
     38 H14        -4.7840    4.4230   -3.3420 h1        1 MOL      0.061188
     39 H15        -2.8580    3.2760   -4.2700 hc        1 MOL      0.032103
     40 H16        -4.3700    2.4030   -4.6200 hc        1 MOL      0.032103
     41 N4         -5.7510    2.1780   -1.2570 n         1 MOL     -0.176569
     42 C14        -7.0100    1.5350   -0.7790 c3        1 MOL     -0.404364
     43 C15        -7.2150    0.0430   -1.1010 c         1 MOL      0.572972
     44 O9         -8.2380   -0.5490   -0.7230 o         1 MOL     -0.622394
     45 H17        -4.9420    2.1650   -0.6460 hn        1 MOL      0.246272
     46 H18        -7.8400    2.1810   -1.0470 h1        1 MOL      0.172084
     47 H19        -6.9240    1.3760    0.2960 h1        1 MOL      0.172084
     48 N5         -6.2230   -0.6460   -1.6700 n         1 MOL     -0.205117
     49 C16        -6.2970   -1.9880   -2.2540 c3        1 MOL      0.010295
     50 C17        -6.4670   -3.1240   -1.2220 c         1 MOL      0.391019
     51 O10        -6.5850   -4.2790   -1.5770 o         1 MOL     -0.535592
     52 C18        -5.0040   -2.2170   -3.1580 c3        1 MOL     -0.269626
     53 C19        -3.6710   -2.1800   -2.4060 c         1 MOL      0.717129
     54 N6         -2.5850   -2.4190   -3.0730 n         1 MOL     -0.753814
     55 O11        -3.5660   -1.7990   -1.2530 o         1 MOL     -0.358194
     56 H20        -5.3030   -0.2270   -1.6170 hn        1 MOL      0.131700
     57 H21        -7.1970   -1.9830   -2.8630 h1        1 MOL      0.102177
     58 H22        -5.0370   -1.3840   -3.8520 hc        1 MOL      0.074856
     59 H23        -5.1050   -3.2050   -3.6170 hc        1 MOL      0.074856
     60 H24        -2.5300   -2.6130   -4.0590 hn        1 MOL      0.351997
     61 H25        -1.7270   -2.2080   -2.5950 hn        1 MOL      0.351997
     62 N7         -6.3690   -2.8970    0.1070 n         1 MOL     -0.107791
     63 C20        -6.5250   -3.8990    1.1290 c3        1 MOL     -0.277906
     64 C21        -5.2430   -4.4760    1.6820 c         1 MOL      0.456128
     65 O12        -5.2140   -5.4480    2.4230 o         1 MOL     -0.560932
     66 H26        -6.3260   -1.9140    0.3230 hn        1 MOL      0.170461
     67 H27        -7.0120   -4.7610    0.6670 h1        1 MOL      0.136285
     68 H28        -7.1780   -3.5770    1.9410 h1        1 MOL      0.136285
     69 N8         -4.0710   -4.0660    1.1740 n         1 MOL     -0.106014
     70 C22        -2.7090   -4.4500    1.6660 c3        1 MOL     -0.321084
     71 C23        -1.7240   -3.2920    1.6640 c         1 MOL      0.646405
     72 O13        -1.9080   -2.3680    0.8560 o         1 MOL     -0.623421
     73 C24        -2.1600   -5.5890    0.7680 c3        1 MOL      0.521980
     74 C25        -2.9530   -6.8590    1.0180 c3        1 MOL     -0.645601
     75 O14        -2.3930   -5.3150   -0.6460 oh        1 MOL     -0.558793
     76 H29        -4.0890   -3.3160    0.4990 hn        1 MOL      0.135625
     77 H30        -2.7670   -4.8560    2.6720 h1        1 MOL      0.124260
     78 H31        -1.0870   -5.6680    0.9700 h1        1 MOL     -0.017971
     79 H32        -2.6080   -4.3840   -0.6770 ho        1 MOL      0.274693
     80 H33        -2.8730   -7.2290    2.0410 hc        1 MOL      0.168482
     81 H34        -4.0260   -6.7210    0.8530 hc        1 MOL      0.168482
     82 H35        -2.6350   -7.6110    0.2910 hc        1 MOL      0.168482
     83 N9         -0.7470   -3.3320    2.4940 n         1 MOL     -0.571988
     84 C26         0.4860   -2.5660    2.3670 c3        1 MOL      0.102540
     85 C27         1.3150   -2.9880    1.1280 c         1 MOL      0.615451
     86 O15         1.7830   -4.0940    0.9820 o         1 MOL     -0.614515
     87 C28         1.3030   -2.5700    3.7120 c3        1 MOL     -0.056760
     88 C29         0.6600   -1.4130    4.5220 c3        1 MOL      0.167644
     89 C30         2.7820   -2.3110    3.5850 c3        1 MOL     -0.035304
     90 C31         1.0570   -1.2910    6.0090 c3        1 MOL     -0.101746
     91 H36        -0.7670   -4.1360    3.1060 hn        1 MOL      0.306479
     92 H37         0.2830   -1.5110    2.1630 h1        1 MOL      0.060967
     93 H38         1.0610   -3.5500    4.1070 hc        1 MOL      0.022406
     94 H39        -0.4230   -1.5300    4.5740 hc        1 MOL     -0.038545
     95 H40         0.8420   -0.4220    4.1100 hc        1 MOL     -0.038545
     96 H41         3.2300   -3.0460    2.9080 hc        1 MOL      0.008671
     97 H42         2.9550   -1.3060    3.1880 hc        1 MOL      0.008671
     98 H43         3.3320   -2.4770    4.5030 hc        1 MOL      0.008671
     99 H44         0.6410   -0.3950    6.4510 hc        1 MOL      0.006159
    100 H45         0.7080   -2.1730    6.5430 hc        1 MOL      0.006159
    101 H46         2.1470   -1.1980    6.1150 hc        1 MOL      0.006159
    102 N10         1.4580   -2.0330    0.2410 n         1 MOL     -0.151939
    103 C32         2.3050   -2.0200   -0.9690 c3        1 MOL     -0.032143
    104 C33         3.7940   -1.6560   -0.6670 c         1 MOL      0.482815
    105 O16         4.1110   -1.0770    0.3680 o         1 MOL     -0.419728
    106 C34         1.8100   -1.0010   -1.9190 c3        1 MOL     -0.269527
    107 C35         0.4540   -1.5310   -2.3480 c         1 MOL      0.725451
    108 O17        -0.5170   -1.1500   -1.6490 o         1 MOL     -0.654577
    109 O18         0.4680   -2.3860   -3.2750 o         1 MOL     -0.654577
    110 H47         1.0990   -1.1220    0.4970 hn        1 MOL      0.027717
    111 H48         2.3960   -2.9190   -1.5810 h1        1 MOL      0.080737
    112 H49         2.5580   -0.9690   -2.7170 hc        1 MOL      0.070293
    113 H50         1.8030   -0.0120   -1.4630 hc        1 MOL      0.070293
    114 N11         4.7760   -1.9870   -1.5260 n         1 MOL     -0.631116
    115 C36         6.2090   -1.7640   -1.2110 c3        1 MOL      0.359087
    116 C37         6.6440   -0.2880   -1.0560 c         1 MOL      0.287524
    117 O19         7.3470   -0.0800   -0.0760 o         1 MOL     -0.456908
    118 C38         7.0920   -2.3690   -2.2920 c3        1 MOL     -0.166382
    119 C39         8.6230   -2.2030   -2.1590 ca        1 MOL      0.089930
    120 C40         9.1970   -2.3660   -0.8620 ca        1 MOL     -0.168715
    121 C41         9.4820   -1.9300   -3.2080 ca        1 MOL     -0.168715
    122 C42        10.5920   -2.2660   -0.6660 ca        1 MOL     -0.057980
    123 C43        10.8430   -1.7470   -3.0090 ca        1 MOL     -0.057980
    124 C44        11.4360   -1.9970   -1.7470 ca        1 MOL     -0.196056
    125 H51         4.5370   -2.5230   -2.3460 hn        1 MOL      0.348857
    126 H52         6.3720   -2.3890   -0.3270 h1        1 MOL      0.067771
    127 H53         6.8110   -1.8230   -3.1940 hc        1 MOL      0.046779
    128 H54         6.6940   -3.3510   -2.5470 hc        1 MOL      0.046779
    129 H55         8.5990   -2.5850    0.0190 ha        1 MOL      0.102611
    130 H56         9.0300   -1.7310   -4.1750 ha        1 MOL      0.102611
    131 H57        10.9950   -2.3720    0.3320 ha        1 MOL      0.098498
    132 H58        11.4450   -1.2860   -3.7760 ha        1 MOL      0.098498
    133 H59        12.4800   -1.8080   -1.5440 ha        1 MOL      0.122609
    134 N12         6.3180    0.7400   -1.9080 n         1 MOL     -0.104232
    135 C45         6.5510    2.1270   -1.5330 c3        1 MOL      0.063230
    136 C46         5.9230    2.5510   -0.1910 c         1 MOL      0.259180
    137 O20         6.3870    3.4930    0.4550 o         1 MOL     -0.489781
    138 C47         5.9420    2.9810   -2.6720 c3        1 MOL     -0.273820
    139 C48         4.8740    2.0780   -3.3460 c3        1 MOL      0.034550
    140 C49         5.5170    0.6800   -3.1640 c3        1 MOL     -0.054371
    141 H60         7.6350    2.2850   -1.5830 h1        1 MOL      0.076685
    142 H61         5.5140    3.8660   -2.2150 hc        1 MOL      0.099145
    143 H62         6.7560    3.1230   -3.3880 hc        1 MOL      0.099145
    144 H63         3.9680    2.1100   -2.7290 hc        1 MOL      0.041187
    145 H64         4.5690    2.3770   -4.3480 hc        1 MOL      0.041187
    146 H65         4.7900   -0.1310   -3.2090 h1        1 MOL      0.034870
    147 H66         6.1670    0.4520   -4.0120 h1        1 MOL      0.034870
    148 N13         4.9030    1.7930    0.2710 n         1 MOL      0.024640
    149 C50         4.1920    2.1140    1.5180 c3        1 MOL     -0.132310
    150 C51         4.9240    1.5690    2.7620 c         1 MOL      0.465828
    151 O21         5.0440    2.1790    3.8230 o         1 MOL     -0.568117
    152 C52         2.7300    1.6360    1.3630 c3        1 MOL      0.008100
    153 C53         1.8910    2.1290    0.2330 c3        1 MOL     -0.193757
    154 C54         0.4750    1.5470    0.2980 c         1 MOL      0.498567
    155 O22         0.2270    0.5320    0.9780 o         1 MOL     -0.589195
    156 O23        -0.4640    2.0720   -0.2800 o         1 MOL     -0.589195
    157 H67         4.4890    1.0300   -0.2620 hn        1 MOL      0.178712
    158 H68         4.1360    3.1890    1.6520 h1        1 MOL      0.102192
    159 H69         2.2750    2.0130    2.2740 hc        1 MOL      0.037244
    160 H70         2.7110    0.5610    1.5290 hc        1 MOL      0.037244
    161 H71         2.3180    1.9430   -0.7510 hc        1 MOL      0.081717
    162 H72         1.8400    3.1980    0.4150 hc        1 MOL      0.081717
    163 N14         5.4990    0.3730    2.6070 n         1 MOL     -0.006925
    164 C55         6.5900   -0.2380    3.3420 c3        1 MOL     -0.248933
    165 H73         6.3230   -1.2620    3.6020 h1        1 MOL      0.092266
    166 H74         7.4880   -0.2410    2.7240 h1        1 MOL      0.092266
    167 H75         6.7780    0.3310    4.2530 h1        1 MOL      0.092266
    168 H76         5.3070    0.0820    1.6650 hn        1 MOL      0.000144
    169 Ca1        -2.1280    0.0540   -0.1520 Ca        1 MOL      1.546870
    170 O24        -2.2340    0.0170    2.6350 oh        1 MOL     -0.688932
    171 H77        -2.8420   -0.3110    3.3020 ho        1 MOL      0.347125
    172 H78        -1.5370    0.4360    3.1410 ho        1 MOL      0.347125
    173 O25        -4.6790   -0.5000    1.2210 oh        1 MOL     -0.688932
    174 H79        -5.2490    0.2580    1.3820 ho        1 MOL      0.347125
    175 H80        -4.6930   -0.9840    2.0540 ho        1 MOL      0.347125
@<TRIPOS>BOND
     1    1    2 1   
     2    1    4 1   
     3    1    5 1   
     4    1    6 1   
     5    2    3 2   
     6    2    7 1   
     7    7    8 1   
     8    7   15 1   
     9    8    9 1   
    10    8   11 1   
    11    8   16 1   
    12    9   10 2   
    13    9   19 1   
    14   11   12 1   
    15   11   17 1   
    16   11   18 1   
    17   12   13 1   
    18   12   14 1   
    19   19   20 1   
    20   19   24 1   
    21   20   21 1   
    22   20   23 1   
    23   20   25 1   
    24   21   22 2   
    25   21   29 1   
    26   23   26 1   
    27   23   27 1   
    28   23   28 1   
    29   29   30 1   
    30   29   37 1   
    31   30   31 1   
    32   30   33 1   
    33   30   38 1   
    34   31   32 2   
    35   31   41 1   
    36   33   34 1   
    37   33   39 1   
    38   33   40 1   
    39   34   35 1   
    40   34   36 1   
    41   41   42 1   
    42   41   45 1   
    43   42   43 1   
    44   42   46 1   
    45   42   47 1   
    46   43   44 2   
    47   43   48 1   
    48   48   49 1   
    49   48   56 1   
    50   49   50 1   
    51   49   52 1   
    52   49   57 1   
    53   50   51 2   
    54   50   62 1   
    55   52   53 1   
    56   52   58 1   
    57   52   59 1   
    58   53   54 1   
    59   53   55 2   
    60   54   60 1   
    61   54   61 1   
    62   62   63 1   
    63   62   66 1   
    64   63   64 1   
    65   63   67 1   
    66   63   68 1   
    67   64   65 2   
    68   64   69 1   
    69   69   70 1   
    70   69   76 1   
    71   70   71 1   
    72   70   73 1   
    73   70   77 1   
    74   71   72 2   
    75   71   83 1   
    76   73   74 1   
    77   73   75 1   
    78   73   78 1   
    79   74   80 1   
    80   74   81 1   
    81   74   82 1   
    82   75   79 1   
    83   83   84 1   
    84   83   91 1   
    85   84   85 1   
    86   84   87 1   
    87   84   92 1   
    88   85   86 2   
    89   85  102 1   
    90   87   88 1   
    91   87   89 1   
    92   87   93 1   
    93   88   90 1   
    94   88   94 1   
    95   88   95 1   
    96   89   96 1   
    97   89   97 1   
    98   89   98 1   
    99   90   99 1   
   100   90  100 1   
   101   90  101 1   
   102  102  103 1   
   103  102  110 1   
   104  103  104 1   
   105  103  106 1   
   106  103  111 1   
   107  104  105 2   
   108  104  114 1   
   109  106  107 1   
   110  106  112 1   
   111  106  113 1   
   112  107  108 1   
   113  107  109 1   
   114  114  115 1   
   115  114  125 1   
   116  115  116 1   
   117  115  118 1   
   118  115  126 1   
   119  116  117 2   
   120  116  134 1   
   121  118  119 1   
   122  118  127 1   
   123  118  128 1   
   124  119  120 ar  
   125  119  121 ar  
   126  120  122 ar  
   127  120  129 1   
   128  121  123 ar  
   129  121  130 1   
   130  122  124 ar  
   131  122  131 1   
   132  123  124 ar  
   133  123  132 1   
   134  124  133 1   
   135  134  135 1   
   136  134  140 1   
   137  135  136 1   
   138  135  138 1   
   139  135  141 1   
   140  136  137 2   
   141  136  148 1   
   142  138  139 1   
   143  138  142 1   
   144  138  143 1   
   145  139  140 1   
   146  139  144 1   
   147  139  145 1   
   148  140  146 1   
   149  140  147 1   
   150  148  149 1   
   151  148  157 1   
   152  149  150 1   
   153  149  152 1   
   154  149  158 1   
   155  150  151 2   
   156  150  163 1   
   157  152  153 1   
   158  152  159 1   
   159  152  160 1   
   160  153  154 1   
   161  153  161 1   
   162  153  162 1   
   163  154  155 1   
   164  154  156 1   
   165  163  164 1   
   166  163  168 1   
   167  164  165 1   
   168  164  166 1   
   169  164  167 1   
   170  170  171 1   
   171  170  172 1   
   172  173  174 1   
   173  173  175 1   
@<TRIPOS>SUBSTRUCTURE
     1 MOL         1 TEMP              0 ****  ****    0 ROOT
