@<TRIPOS>MOLECULE
MOL
  172   171     1     0     0
SMALL
resp


@<TRIPOS>ATOM
      1 C1          0.1850   -3.7910    5.4250 c3        1 MOL     -0.420656
      2 C2          0.7050   -3.5220    4.0120 c         1 MOL      0.781438
      3 O1          0.2540   -4.0420    3.0150 o         1 MOL     -0.618253
      4 H1          0.6730   -3.1140    6.1260 hc        1 MOL      0.099651
      5 H2         -0.8930   -3.6280    5.4540 hc        1 MOL      0.099651
      6 H3          0.4040   -4.8210    5.7040 hc        1 MOL      0.099651
      7 N1          1.7820   -2.7260    3.9270 n         1 MOL     -0.665316
      8 C3          2.3870   -2.3730    2.6350 c3        1 MOL      0.155602
      9 C4          2.9200   -3.5370    1.7820 c         1 MOL      0.533134
     10 O2          3.8820   -4.1900    2.0760 o         1 MOL     -0.611809
     11 C5          3.5570   -1.4630    2.9530 c3        1 MOL     -0.135375
     12 C6          4.0450   -0.6690    1.7570 c         1 MOL      0.604321
     13 O3          5.1630   -0.0900    2.0130 o         1 MOL     -0.649376
     14 O4          3.3800   -0.6220    0.6760 o         1 MOL     -0.649376
     15 H4          1.9410   -2.0890    4.6920 hn        1 MOL      0.331245
     16 H5          1.7000   -1.8670    1.9620 h1        1 MOL      0.009153
     17 H6          4.4260   -2.0240    3.3250 hc        1 MOL      0.033575
     18 H7          3.2770   -0.7490    3.7240 hc        1 MOL      0.033575
     19 N2          2.2640   -3.8760    0.7530 n         1 MOL     -0.165032
     20 C7          2.2690   -5.1390    0.0230 c3        1 MOL      0.078595
     21 C8          3.2740   -5.1010   -1.1740 c         1 MOL      0.413234
     22 O5          4.0070   -6.0820   -1.4910 o         1 MOL     -0.573860
     23 C9          0.8010   -5.4870   -0.3550 c3        1 MOL     -0.261265
     24 H8          1.5650   -3.1930    0.4960 hn        1 MOL      0.378101
     25 H9          2.6640   -5.8620    0.7370 h1        1 MOL      0.055441
     26 H10         0.3740   -4.8850   -1.1610 hc        1 MOL      0.059361
     27 H11         0.9300   -6.5080   -0.7310 hc        1 MOL      0.059361
     28 H12         0.0760   -5.4850    0.4660 hc        1 MOL      0.059361
     29 N3          3.4110   -3.9310   -1.7530 n         1 MOL     -0.217550
     30 C10         4.5750   -3.6070   -2.6430 c3        1 MOL     -0.019805
     31 C11         5.8230   -3.0400   -1.9140 c         1 MOL      0.414240
     32 O6          6.9430   -2.8040   -2.4710 o         1 MOL     -0.571679
     33 C12         4.1460   -2.6800   -3.8140 c3        1 MOL     -0.235495
     34 C13         3.5030   -1.3860   -3.3550 c         1 MOL      0.753047
     35 O7          3.6760   -0.9220   -2.2480 o         1 MOL     -0.722743
     36 O8          2.7720   -0.8090   -4.1880 o         1 MOL     -0.722743
     37 H13         2.8040   -3.1950   -1.4220 hn        1 MOL      0.165515
     38 H14         5.0140   -4.5460   -2.9710 h1        1 MOL      0.112965
     39 H15         3.5300   -3.2690   -4.5060 hc        1 MOL      0.065186
     40 H16         5.0680   -2.3920   -4.3210 hc        1 MOL      0.065186
     41 N4          5.8030   -2.7990   -0.5920 n         1 MOL     -0.096639
     42 C14         6.9340   -2.3030    0.2100 c3        1 MOL     -0.217817
     43 C15         7.3940   -0.9260   -0.0980 c         1 MOL      0.591449
     44 O9          8.5010   -0.5630    0.3380 o         1 MOL     -0.598890
     45 H17         4.9250   -3.0060   -0.1340 hn        1 MOL      0.091636
     46 H18         7.8290   -2.9140    0.1620 h1        1 MOL      0.115434
     47 H19         6.7270   -2.2480    1.2810 h1        1 MOL      0.115434
     48 N5          6.5760   -0.1610   -0.8970 n         1 MOL     -0.259821
     49 C16         6.9780    1.0690   -1.4930 c3        1 MOL      0.001826
     50 C17         6.8970    2.2870   -0.5230 c         1 MOL      0.364533
     51 O10         7.4290    3.3850   -0.8840 o         1 MOL     -0.586023
     52 C18         5.9850    1.2580   -2.6210 c3        1 MOL     -0.180333
     53 C19         4.6230    1.7680   -2.3250 c         1 MOL      0.718451
     54 N6          4.0390    2.2760   -3.3220 n         1 MOL     -0.782649
     55 O11         4.0460    1.7570   -1.2760 o         1 MOL     -0.520960
     56 H20         5.6450   -0.4770   -1.1360 hn        1 MOL      0.200175
     57 H21         7.9860    1.0390   -1.9000 h1        1 MOL      0.093885
     58 H22         5.8870    0.3070   -3.1500 hc        1 MOL      0.057905
     59 H23         6.4340    1.9640   -3.3200 hc        1 MOL      0.057905
     60 H24         4.3530    2.2170   -4.2830 hn        1 MOL      0.347137
     61 H25         3.1140    2.6660   -3.2720 hn        1 MOL      0.347137
     62 N7          6.2620    2.1890    0.6590 n         1 MOL     -0.044514
     63 C20         6.2390    3.2080    1.8230 c3        1 MOL     -0.248326
     64 C21         4.9400    4.0120    1.9250 c         1 MOL      0.581331
     65 O12         4.8600    4.9410    2.7020 o         1 MOL     -0.595223
     66 H26         5.8210    1.3000    0.8220 hn        1 MOL      0.115057
     67 H27         7.0870    3.8950    1.7470 h1        1 MOL      0.124565
     68 H28         6.3480    2.6290    2.7440 h1        1 MOL      0.124565
     69 N8          3.9150    3.8130    1.0420 n         1 MOL     -0.176873
     70 C22         2.5850    4.5260    1.1560 c3        1 MOL     -0.049235
     71 C23         1.4470    3.5330    1.0550 c         1 MOL      0.535700
     72 O13         1.6270    2.3760    0.5660 o         1 MOL     -0.649552
     73 C24         2.3530    5.6020    0.0670 c3        1 MOL      0.367121
     74 C25         3.5320    6.6140   -0.0740 c3        1 MOL     -0.418537
     75 O14         2.1090    5.0200   -1.1810 oh        1 MOL     -0.593183
     76 H29         4.0810    3.1710    0.2770 hn        1 MOL      0.140599
     77 H30         2.4410    4.9250    2.1600 h1        1 MOL      0.061167
     78 H31         1.4830    6.1990    0.3620 h1        1 MOL     -0.018482
     79 H32         2.3180    5.6930   -1.8250 ho        1 MOL      0.392426
     80 H33         3.0460    7.5070   -0.4770 hc        1 MOL      0.106695
     81 H34         3.8480    6.8890    0.9330 hc        1 MOL      0.106695
     82 H35         4.3110    6.2250   -0.7170 hc        1 MOL      0.106695
     83 N9          0.2410    3.8630    1.6140 n         1 MOL     -0.412802
     84 C26        -0.8710    2.8930    1.7360 c3        1 MOL     -0.042437
     85 C27        -1.7510    3.0360    0.4980 c         1 MOL      0.512307
     86 O15        -2.2450    4.0900    0.1720 o         1 MOL     -0.586071
     87 C28        -1.6140    2.9180    3.1170 c3        1 MOL      0.056175
     88 C29        -0.5840    2.4070    4.1530 c3        1 MOL      0.036989
     89 C30        -2.8810    2.0090    3.1160 c3        1 MOL     -0.056155
     90 C31        -1.2400    2.1180    5.5330 c3        1 MOL     -0.216733
     91 H36         0.1420    4.7970    1.9860 hn        1 MOL      0.271150
     92 H37        -0.4870    1.8710    1.7490 h1        1 MOL      0.106578
     93 H38        -1.9000    3.9340    3.3630 hc        1 MOL      0.005108
     94 H39         0.2110    3.1170    4.3750 hc        1 MOL      0.022442
     95 H40        -0.1990    1.4310    3.8430 hc        1 MOL      0.022442
     96 H41        -3.4540    2.0840    4.0400 hc        1 MOL      0.008723
     97 H42        -3.5620    2.3570    2.3380 hc        1 MOL      0.008723
     98 H43        -2.5860    0.9910    2.8340 hc        1 MOL      0.008723
     99 H44        -1.5600    3.0440    6.0050 hc        1 MOL      0.041973
    100 H45        -2.1160    1.4680    5.4150 hc        1 MOL      0.041973
    101 H46        -0.5330    1.5320    6.1370 hc        1 MOL      0.041973
    102 N10        -1.8000    1.9950   -0.3370 n         1 MOL     -0.214192
    103 C32        -2.8450    1.8310   -1.3650 c3        1 MOL      0.064210
    104 C33        -4.2670    1.4740   -0.8550 c         1 MOL      0.507593
    105 O16        -4.4100    0.9960    0.2250 o         1 MOL     -0.331636
    106 C34        -2.3760    0.8070   -2.3900 c3        1 MOL     -0.409327
    107 C35        -1.0330    1.1190   -3.0530 c         1 MOL      0.855632
    108 O17        -0.0910    0.2980   -2.8650 o         1 MOL     -0.714554
    109 O18        -0.8390    2.1870   -3.5890 o         1 MOL     -0.714554
    110 H47        -1.2540    1.2160   -0.0080 hn        1 MOL      0.184402
    111 H48        -2.9240    2.8000   -1.8680 h1        1 MOL      0.063569
    112 H49        -3.0600    0.8350   -3.2370 hc        1 MOL      0.081717
    113 H50        -2.3880   -0.1830   -1.9360 hc        1 MOL      0.081717
    114 N11        -5.3180    1.6280   -1.6780 n         1 MOL     -0.741328
    115 C36        -6.6860    1.3090   -1.2720 c3        1 MOL      0.567420
    116 C37        -6.8960   -0.1060   -0.6570 c         1 MOL      0.219034
    117 O19        -7.5320   -0.2330    0.4220 o         1 MOL     -0.461077
    118 C38        -7.7210    1.5970   -2.3720 c3        1 MOL     -0.197609
    119 C39        -9.1440    1.4270   -1.9510 ca        1 MOL      0.153903
    120 C40        -9.9910    0.4360   -2.5850 ca        1 MOL     -0.222294
    121 C41        -9.6350    2.1380   -0.8650 ca        1 MOL     -0.222294
    122 C42       -11.3140    0.2630   -2.0760 ca        1 MOL     -0.133366
    123 C43       -10.9050    1.8560   -0.2800 ca        1 MOL     -0.133366
    124 C44       -11.7000    0.8650   -0.8370 ca        1 MOL     -0.038707
    125 H51        -5.1950    1.8210   -2.6640 hn        1 MOL      0.347064
    126 H52        -6.9940    2.0350   -0.5190 h1        1 MOL     -0.009603
    127 H53        -7.5790    0.9230   -3.2180 hc        1 MOL      0.031987
    128 H54        -7.6150    2.6140   -2.7400 hc        1 MOL      0.031987
    129 H55        -9.5420   -0.2240   -3.3060 ha        1 MOL      0.144188
    130 H56        -9.0580    2.9020   -0.3640 ha        1 MOL      0.144188
    131 H57       -11.9440   -0.4300   -2.6170 ha        1 MOL      0.119471
    132 H58       -11.1840    2.3980    0.6190 ha        1 MOL      0.119471
    133 H59       -12.6780    0.5170   -0.5280 ha        1 MOL      0.077420
    134 N12        -6.4150   -1.1890   -1.3120 n         1 MOL     -0.035323
    135 C45        -6.5360   -2.5560   -0.8370 c3        1 MOL      0.065858
    136 C46        -5.6130   -2.8530    0.3010 c         1 MOL      0.271894
    137 O20        -5.7970   -3.8400    0.9910 o         1 MOL     -0.510415
    138 C47        -6.1430   -3.5050   -2.0060 c3        1 MOL     -0.110452
    139 C48        -6.3500   -2.5750   -3.2220 c3        1 MOL     -0.127916
    140 C49        -5.7380   -1.2590   -2.6450 c3        1 MOL     -0.209445
    141 H60        -7.5140   -2.7090   -0.3680 h1        1 MOL      0.086946
    142 H61        -5.0960   -3.7900   -1.8910 hc        1 MOL      0.081971
    143 H62        -6.8930   -4.2920   -2.0120 hc        1 MOL      0.081971
    144 H63        -5.7570   -2.9730   -4.0510 hc        1 MOL      0.060827
    145 H64        -7.4050   -2.5030   -3.4850 hc        1 MOL      0.060827
    146 H65        -4.6540   -1.3570   -2.5860 h1        1 MOL      0.129575
    147 H66        -6.0080   -0.3990   -3.2610 h1        1 MOL      0.129575
    148 N13        -4.6120   -2.0150    0.6170 n         1 MOL     -0.032830
    149 C50        -3.8130   -2.0380    1.8450 c3        1 MOL     -0.055069
    150 C51        -4.5580   -1.3450    2.9960 c         1 MOL      0.421916
    151 O21        -4.4970   -1.8000    4.1420 o         1 MOL     -0.558729
    152 C52        -2.4570   -1.4240    1.5690 c3        1 MOL     -0.046276
    153 C53        -1.6280   -2.1720    0.5220 c3        1 MOL     -0.319664
    154 C54        -0.3110   -1.4110    0.2450 c         1 MOL      0.759830
    155 O22         0.5280   -1.9760   -0.5230 o         1 MOL     -0.783565
    156 O23        -0.1780   -0.2060    0.5620 o         1 MOL     -0.783565
    157 H67        -4.6720   -1.1630    0.0710 hn        1 MOL     -0.009542
    158 H68        -3.6490   -3.0730    2.1430 h1        1 MOL      0.101147
    159 H69        -1.8740   -1.3060    2.4740 hc        1 MOL      0.086851
    160 H70        -2.6980   -0.4380    1.1610 hc        1 MOL      0.086851
    161 H71        -2.2040   -2.2520   -0.4000 hc        1 MOL      0.120854
    162 H72        -1.3550   -3.1440    0.9240 hc        1 MOL      0.120854
    163 N14        -5.3570   -0.2960    2.7100 n         1 MOL      0.024502
    164 C55        -6.1730    0.3700    3.6820 c3        1 MOL     -0.161974
    165 H73        -5.6250    1.2170    4.0970 h1        1 MOL      0.061778
    166 H74        -7.0870    0.7280    3.2080 h1        1 MOL      0.061778
    167 H75        -6.4260   -0.3250    4.4820 h1        1 MOL      0.061778
    168 H76        -5.4170    0.0230    1.7540 hn        1 MOL      0.013620
    169 Ca1         1.7810    0.4160   -1.0580 Ca        1 MOL      1.746894
    170 O24         1.3400    2.7040   -2.2790 oh        1 MOL     -0.901595
    171 H77         1.4720    3.6020   -1.9640 ho        1 MOL      0.418697
    172 H78         0.5550    2.7450   -2.8200 ho        1 MOL      0.418697
@<TRIPOS>BOND
     1    1    2 1   
     2    1    4 1   
     3    1    5 1   
     4    1    6 1   
     5    2    3 2   
     6    2    7 1   
     7    7    8 1   
     8    7   15 1   
     9    8    9 1   
    10    8   11 1   
    11    8   16 1   
    12    9   10 2   
    13    9   19 1   
    14   11   12 1   
    15   11   17 1   
    16   11   18 1   
    17   12   13 1   
    18   12   14 1   
    19   19   20 1   
    20   19   24 1   
    21   20   21 1   
    22   20   23 1   
    23   20   25 1   
    24   21   22 2   
    25   21   29 1   
    26   23   26 1   
    27   23   27 1   
    28   23   28 1   
    29   29   30 1   
    30   29   37 1   
    31   30   31 1   
    32   30   33 1   
    33   30   38 1   
    34   31   32 2   
    35   31   41 1   
    36   33   34 1   
    37   33   39 1   
    38   33   40 1   
    39   34   35 1   
    40   34   36 1   
    41   41   42 1   
    42   41   45 1   
    43   42   43 1   
    44   42   46 1   
    45   42   47 1   
    46   43   44 2   
    47   43   48 1   
    48   48   49 1   
    49   48   56 1   
    50   49   50 1   
    51   49   52 1   
    52   49   57 1   
    53   50   51 2   
    54   50   62 1   
    55   52   53 1   
    56   52   58 1   
    57   52   59 1   
    58   53   54 1   
    59   53   55 2   
    60   54   60 1   
    61   54   61 1   
    62   62   63 1   
    63   62   66 1   
    64   63   64 1   
    65   63   67 1   
    66   63   68 1   
    67   64   65 2   
    68   64   69 1   
    69   69   70 1   
    70   69   76 1   
    71   70   71 1   
    72   70   73 1   
    73   70   77 1   
    74   71   72 2   
    75   71   83 1   
    76   73   74 1   
    77   73   75 1   
    78   73   78 1   
    79   74   80 1   
    80   74   81 1   
    81   74   82 1   
    82   75   79 1   
    83   83   84 1   
    84   83   91 1   
    85   84   85 1   
    86   84   87 1   
    87   84   92 1   
    88   85   86 2   
    89   85  102 1   
    90   87   88 1   
    91   87   89 1   
    92   87   93 1   
    93   88   90 1   
    94   88   94 1   
    95   88   95 1   
    96   89   96 1   
    97   89   97 1   
    98   89   98 1   
    99   90   99 1   
   100   90  100 1   
   101   90  101 1   
   102  102  103 1   
   103  102  110 1   
   104  103  104 1   
   105  103  106 1   
   106  103  111 1   
   107  104  105 2   
   108  104  114 1   
   109  106  107 1   
   110  106  112 1   
   111  106  113 1   
   112  107  108 1   
   113  107  109 1   
   114  114  115 1   
   115  114  125 1   
   116  115  116 1   
   117  115  118 1   
   118  115  126 1   
   119  116  117 2   
   120  116  134 1   
   121  118  119 1   
   122  118  127 1   
   123  118  128 1   
   124  119  120 ar  
   125  119  121 ar  
   126  120  122 ar  
   127  120  129 1   
   128  121  123 ar  
   129  121  130 1   
   130  122  124 ar  
   131  122  131 1   
   132  123  124 ar  
   133  123  132 1   
   134  124  133 1   
   135  134  135 1   
   136  134  140 1   
   137  135  136 1   
   138  135  138 1   
   139  135  141 1   
   140  136  137 2   
   141  136  148 1   
   142  138  139 1   
   143  138  142 1   
   144  138  143 1   
   145  139  140 1   
   146  139  144 1   
   147  139  145 1   
   148  140  146 1   
   149  140  147 1   
   150  148  149 1   
   151  148  157 1   
   152  149  150 1   
   153  149  152 1   
   154  149  158 1   
   155  150  151 2   
   156  150  163 1   
   157  152  153 1   
   158  152  159 1   
   159  152  160 1   
   160  153  154 1   
   161  153  161 1   
   162  153  162 1   
   163  154  155 1   
   164  154  156 1   
   165  163  164 1   
   166  163  168 1   
   167  164  165 1   
   168  164  166 1   
   169  164  167 1   
   170  170  171 1   
   171  170  172 1   
@<TRIPOS>SUBSTRUCTURE
     1 MOL         1 TEMP              0 ****  ****    0 ROOT
