@<TRIPOS>MOLECULE
MOL
  179   176     1     0     0
SMALL
resp


@<TRIPOS>ATOM
      1 C1          2.4710    3.3200    4.4310 c3        1 MOL     -0.384219
      2 C2          1.6100    2.9900    3.1900 c         1 MOL      0.526187
      3 O1          2.1880    2.4240    2.2540 o         1 MOL     -0.487017
      4 H1          2.4980    4.4000    4.5770 hc        1 MOL      0.103742
      5 H2          2.0380    2.8460    5.3110 hc        1 MOL      0.103742
      6 H3          3.4850    2.9480    4.2790 hc        1 MOL      0.103742
      7 N1          0.2630    3.1360    3.2820 n         1 MOL     -0.618849
      8 C3         -0.6810    2.8510    2.1710 c3        1 MOL      0.076798
      9 C4         -1.2160    4.1710    1.5960 c         1 MOL      0.582430
     10 O2         -2.3210    4.5650    1.9090 o         1 MOL     -0.499084
     11 C5         -1.8840    2.0290    2.7120 c3        1 MOL     -0.122338
     12 C6         -2.8880    1.6210    1.6860 c         1 MOL      0.711892
     13 O3         -4.1050    1.4550    1.9280 o         1 MOL     -0.694657
     14 O4         -2.4490    1.4310    0.5500 o         1 MOL     -0.694657
     15 H4         -0.1240    3.3890    4.1850 hn        1 MOL      0.356091
     16 H5         -0.1160    2.3470    1.3860 h1        1 MOL      0.014635
     17 H6         -2.4230    2.6550    3.4150 hc        1 MOL      0.028093
     18 H7         -1.4790    1.1250    3.1630 hc        1 MOL      0.028093
     19 N2         -0.4560    4.8360    0.7870 n         1 MOL     -0.467063
     20 C7         -0.8660    6.2220    0.4190 c3        1 MOL     -0.129138
     21 C8         -1.9470    6.2910   -0.6140 c         1 MOL      0.452023
     22 O5         -2.4990    7.3110   -0.7960 o         1 MOL     -0.532157
     23 C9          0.3310    7.0680   -0.0860 c3        1 MOL      0.009438
     24 C10         1.5100    7.0730    0.8820 c3        1 MOL      0.158179
     25 C11         2.6140    7.7210    0.0470 c3        1 MOL     -0.110251
     26 C12         3.8650    8.1490    0.8740 c3        1 MOL     -0.081207
     27 N3          4.6000    7.0560    1.4700 n4        1 MOL     -0.178486
     28 H8          0.4700    4.5120    0.5830 hn        1 MOL      0.367456
     29 H9         -1.2730    6.6520    1.3360 h1        1 MOL      0.126127
     30 H10        -0.0180    8.0980   -0.2140 hc        1 MOL      0.036403
     31 H11         0.6360    6.7390   -1.0770 hc        1 MOL      0.036403
     32 H12         1.7730    6.0270    1.0450 hc        1 MOL     -0.038703
     33 H13         1.2410    7.5700    1.8170 hc        1 MOL     -0.038703
     34 H14         2.1160    8.5090   -0.5250 hc        1 MOL      0.070540
     35 H15         2.9030    6.9870   -0.7120 hc        1 MOL      0.070540
     36 H16         3.6250    8.7810    1.7250 hx        1 MOL      0.105166
     37 H17         4.5400    8.6860    0.2030 hx        1 MOL      0.105166
     38 H18         4.0120    6.6830    2.2110 hn        1 MOL      0.289984
     39 H19         4.8010    6.2880    0.8520 hn        1 MOL      0.289984
     40 H20         5.5020    7.3020    1.8610 hn        1 MOL      0.289984
     41 N4         -2.2800    5.1580   -1.2590 n         1 MOL     -0.135340
     42 C13        -3.3490    4.9160   -2.3430 c3        1 MOL     -0.039263
     43 C14        -4.6580    4.3130   -1.8240 c         1 MOL      0.474411
     44 O6         -5.6080    4.2170   -2.6010 o         1 MOL     -0.534372
     45 C15        -2.7070    4.0850   -3.4850 c3        1 MOL     -0.100681
     46 C16        -2.3150    2.7250   -2.9160 c         1 MOL      0.640701
     47 O7         -1.1860    2.6170   -2.4090 o         1 MOL     -0.702466
     48 O8         -3.2030    1.8360   -2.7130 o         1 MOL     -0.702466
     49 H21        -1.7350    4.3250   -1.0690 hn        1 MOL      0.106279
     50 H22        -3.5790    5.9260   -2.6920 h1        1 MOL      0.091150
     51 H23        -1.7800    4.6050   -3.7530 hc        1 MOL      0.035150
     52 H24        -3.2950    3.9880   -4.3840 hc        1 MOL      0.035150
     53 N5         -4.6130    3.8190   -0.5590 n         1 MOL     -0.271868
     54 C17        -5.9700    3.4820    0.0300 c3        1 MOL     -0.122891
     55 C18        -6.5010    2.0490   -0.1210 c         1 MOL      0.503500
     56 O9         -7.5310    1.7260    0.4990 o         1 MOL     -0.561263
     57 H25        -3.7780    3.9490   -0.0090 hn        1 MOL      0.228632
     58 H26        -6.6900    4.2700   -0.2220 h1        1 MOL      0.101777
     59 H27        -5.9390    3.6850    1.0990 h1        1 MOL      0.101777
     60 N6         -5.8130    1.2020   -0.9040 n         1 MOL     -0.351875
     61 C19        -6.3780   -0.1280   -1.2820 c3        1 MOL      0.051899
     62 C20        -6.4640   -1.1970   -0.1830 c         1 MOL      0.255789
     63 O10        -7.0320   -2.2720   -0.3720 o         1 MOL     -0.460379
     64 C21        -5.6890   -0.5280   -2.5270 c3        1 MOL     -0.301406
     65 C22        -4.4330   -1.3620   -2.2810 c         1 MOL      0.666845
     66 N7         -4.0810   -2.2360   -3.1470 n         1 MOL     -0.649882
     67 O11        -3.6460   -1.0940   -1.3850 o         1 MOL     -0.635011
     68 H28        -5.0820    1.5660   -1.4810 hn        1 MOL      0.312414
     69 H29        -7.4210    0.0310   -1.5770 h1        1 MOL      0.116117
     70 H30        -5.4360    0.2930   -3.2060 hc        1 MOL      0.109185
     71 H31        -6.4030   -1.2100   -2.9670 hc        1 MOL      0.109185
     72 H32        -4.8000   -2.4390   -3.8300 hn        1 MOL      0.323227
     73 H33        -3.3810   -2.9230   -2.8830 hn        1 MOL      0.323227
     74 N8         -5.8980   -0.8900    1.0030 n         1 MOL     -0.002187
     75 C23        -5.8630   -1.7540    2.1780 c3        1 MOL     -0.491401
     76 C24        -4.7430   -2.8100    2.1710 c         1 MOL      0.556154
     77 O12        -4.6650   -3.6390    3.1180 o         1 MOL     -0.583010
     78 H34        -5.3320   -0.0500    1.0210 hn        1 MOL      0.265712
     79 H35        -6.7570   -2.3850    2.1410 h1        1 MOL      0.190612
     80 H36        -5.8810   -1.1700    3.0970 h1        1 MOL      0.190612
     81 N9         -3.8530   -2.7340    1.1970 n         1 MOL     -0.025487
     82 C25        -2.6200   -3.5190    1.1920 c3        1 MOL      0.391289
     83 C26        -1.3860   -2.6160    1.0590 c         1 MOL      0.026911
     84 O13        -1.4590   -1.5580    0.4790 o         1 MOL     -0.460625
     85 C27        -2.7000   -4.6510    0.0760 c3        1 MOL     -0.015771
     86 C28        -3.9710   -5.4690    0.1820 ca        1 MOL     -0.175521
     87 C29        -5.0990   -4.9880   -0.5570 ca        1 MOL     -0.081828
     88 C30        -4.0450   -6.5430    1.0990 ca        1 MOL     -0.081828
     89 C31        -6.2860   -5.7970   -0.4380 ca        1 MOL     -0.237157
     90 C32        -5.1820   -7.3280    1.1530 ca        1 MOL     -0.237157
     91 C33        -6.3440   -6.9470    0.3430 ca        1 MOL      0.325716
     92 O14        -7.5460   -7.6040    0.4640 oh        1 MOL     -0.527317
     93 H37        -3.8130   -1.9760    0.5380 hn        1 MOL      0.010975
     94 H38        -2.5490   -3.9790    2.1740 h1        1 MOL     -0.041137
     95 H39        -1.8960   -5.3490    0.3170 hc        1 MOL      0.022207
     96 H40        -2.5460   -4.2610   -0.9270 hc        1 MOL      0.022207
     97 H41        -4.9990   -4.2140   -1.3020 ha        1 MOL      0.115512
     98 H42        -3.1630   -6.8160    1.6740 ha        1 MOL      0.115512
     99 H43        -7.0980   -5.5580   -1.1050 ha        1 MOL      0.128178
    100 H44        -5.1360   -8.2170    1.7660 ha        1 MOL      0.128178
    101 H45        -7.6590   -8.2250    1.1870 ho        1 MOL      0.395325
    102 N10        -0.2620   -3.1620    1.4960 n         1 MOL     -0.172635
    103 C34         1.0150   -2.5410    1.3200 c3        1 MOL     -0.255863
    104 C35         1.9880   -3.6800    0.9180 c         1 MOL      0.434212
    105 O15         1.8660   -4.8830    1.2530 o         1 MOL     -0.531828
    106 C36         1.5840   -1.8360    2.5110 c3        1 MOL      0.095948
    107 C37         1.9480   -2.6500    3.8040 c3        1 MOL      0.031741
    108 C38         0.6490   -0.6470    2.8470 c3        1 MOL      0.285430
    109 C39         2.6210   -1.9000    5.0380 c3        1 MOL     -0.183370
    110 H46        -0.2180   -4.0620    1.9510 hn        1 MOL      0.258410
    111 H47         0.9200   -1.8210    0.5070 h1        1 MOL      0.159091
    112 H48         2.5000   -1.3770    2.1350 hc        1 MOL     -0.055294
    113 H49         2.6190   -3.4420    3.4760 hc        1 MOL      0.007183
    114 H50         1.0070   -3.0550    4.1780 hc        1 MOL      0.007183
    115 H51        -0.0790   -0.8630    3.6240 hc        1 MOL     -0.034989
    116 H52         1.2450    0.1780    3.2390 hc        1 MOL     -0.034989
    117 H53         0.1960   -0.1200    2.0080 hc        1 MOL     -0.034989
    118 H54         2.7520   -2.6750    5.7840 hc        1 MOL      0.046265
    119 H55         3.5320   -1.3450    4.8020 hc        1 MOL      0.046265
    120 H56         1.9470   -1.1530    5.4460 hc        1 MOL      0.046265
    121 N11         2.9860   -3.2660    0.1810 n         1 MOL     -0.229027
    122 C40         3.8570   -4.1420   -0.5540 c3        1 MOL      0.177617
    123 C41         5.3210   -3.6970   -0.1940 c         1 MOL      0.353943
    124 O16         5.5500   -2.6030    0.4000 o         1 MOL     -0.448304
    125 C42         3.6170   -3.9680   -2.0980 c3        1 MOL     -0.226809
    126 O17         4.3310   -2.9190   -2.6770 oh        1 MOL     -0.479900
    127 H57         3.1010   -2.2920   -0.0360 hn        1 MOL      0.258640
    128 H58         3.7140   -5.1840   -0.2610 h1        1 MOL      0.050417
    129 H59         2.5510   -3.9840   -2.3050 h1        1 MOL      0.113138
    130 H60         4.1670   -4.8050   -2.5470 h1        1 MOL      0.113138
    131 H61         4.4360   -3.0810   -3.6170 ho        1 MOL      0.411460
    132 N12         6.3330   -4.4630   -0.5220 n         1 MOL     -0.397624
    133 C43         7.7730   -4.0820   -0.2700 c3        1 MOL      0.223924
    134 C44         8.2660   -2.7480   -0.8260 c         1 MOL      0.370704
    135 O18         9.0520   -1.9980   -0.2380 o         1 MOL     -0.481559
    136 C45         8.5390   -5.2250   -0.9240 c3        1 MOL     -0.362571
    137 H62         6.1280   -5.4360   -0.7130 hn        1 MOL      0.298173
    138 H63         8.0000   -4.0280    0.7910 h1        1 MOL      0.065217
    139 H64         8.0370   -5.5410   -1.8400 hc        1 MOL      0.103493
    140 H65         9.5530   -4.8480   -0.9930 hc        1 MOL      0.103493
    141 H66         8.5720   -6.0970   -0.2810 hc        1 MOL      0.103493
    142 N13         7.7140   -2.3490   -1.9980 n         1 MOL     -0.338305
    143 C46         8.0040   -1.0080   -2.5520 c3        1 MOL      0.093606
    144 C47         7.2780    0.1440   -1.7600 c         1 MOL      0.351798
    145 O19         7.8160    1.2530   -1.6590 o         1 MOL     -0.518252
    146 C48         7.8290   -1.0400   -4.0450 c3        1 MOL     -0.236461
    147 H67         6.9600   -2.8620   -2.4300 hn        1 MOL      0.218925
    148 H68         9.0660   -0.7830   -2.4660 h1        1 MOL      0.115961
    149 H69         6.8740   -1.5090   -4.2940 hc        1 MOL      0.065881
    150 H70         7.8500   -0.0600   -4.5160 hc        1 MOL      0.065881
    151 H71         8.6600   -1.5880   -4.4680 hc        1 MOL      0.065881
    152 N14         6.1170   -0.0960   -1.2540 n         1 MOL     -0.003001
    153 C49         5.4050    0.8980   -0.5520 c3        1 MOL     -0.056521
    154 C50         6.0710    1.1890    0.8370 c         1 MOL      0.443967
    155 O20         6.5340    2.3030    1.0720 o         1 MOL     -0.547112
    156 C51         3.9150    0.4890   -0.2690 c3        1 MOL      0.125782
    157 C52         3.0070    0.7960   -1.4590 c3        1 MOL      0.314867
    158 C53         1.5830    0.3160   -1.3150 c         1 MOL      0.659132
    159 O21         1.0640   -0.5880   -2.0030 o         1 MOL     -0.757711
    160 O22         0.9260    0.8980   -0.4490 o         1 MOL     -0.757711
    161 H72         5.7100   -1.0050   -1.4190 hn        1 MOL      0.055911
    162 H73         5.3850    1.7790   -1.2010 h1        1 MOL      0.052362
    163 H74         3.5940    1.1450    0.5440 hc        1 MOL     -0.065203
    164 H75         3.8370   -0.5700   -0.0250 hc        1 MOL     -0.065203
    165 H76         3.4320    0.2020   -2.2690 hc        1 MOL     -0.116726
    166 H77         3.1080    1.7960   -1.8660 hc        1 MOL     -0.116726
    167 N15         6.3490    0.1260    1.6050 n         1 MOL     -0.177162
    168 C54         7.2580    0.1840    2.8250 c3        1 MOL     -0.098054
    169 H78         7.2960    1.2070    3.2000 h1        1 MOL      0.070051
    170 H79         6.8660   -0.4730    3.6010 h1        1 MOL      0.070051
    171 H80         8.2610   -0.1380    2.5480 h1        1 MOL      0.070051
    172 H81         5.8550   -0.7420    1.4460 hn        1 MOL      0.168284
    173 Ca1        -1.4060    0.1860   -1.3010 Ca        1 MOL      1.725056
    174 O23        -0.7230   -2.4360   -1.9790 oh        1 MOL     -0.727102
    175 H82         0.1330   -2.0240   -2.0540 ho        1 MOL      0.357892
    176 H83        -0.5960   -3.3160   -2.3380 ho        1 MOL      0.357892
    177 O24        -1.2320   -0.3590   -3.9140 oh        1 MOL     -0.727102
    178 H84        -0.3230   -0.5380   -4.1620 ho        1 MOL      0.357892
    179 H85        -1.7480   -1.0170   -4.3680 ho        1 MOL      0.357892
@<TRIPOS>BOND
     1    1    2 1   
     2    1    4 1   
     3    1    5 1   
     4    1    6 1   
     5    2    3 2   
     6    2    7 1   
     7    7    8 1   
     8    7   15 1   
     9    8    9 1   
    10    8   11 1   
    11    8   16 1   
    12    9   10 2   
    13    9   19 1   
    14   11   12 1   
    15   11   17 1   
    16   11   18 1   
    17   12   13 1   
    18   12   14 1   
    19   19   20 1   
    20   19   28 1   
    21   20   21 1   
    22   20   23 1   
    23   20   29 1   
    24   21   22 2   
    25   21   41 1   
    26   23   24 1   
    27   23   30 1   
    28   23   31 1   
    29   24   25 1   
    30   24   32 1   
    31   24   33 1   
    32   25   26 1   
    33   25   34 1   
    34   25   35 1   
    35   26   27 1   
    36   26   36 1   
    37   26   37 1   
    38   27   38 1   
    39   27   39 1   
    40   27   40 1   
    41   41   42 1   
    42   41   49 1   
    43   42   43 1   
    44   42   45 1   
    45   42   50 1   
    46   43   44 2   
    47   43   53 1   
    48   45   46 1   
    49   45   51 1   
    50   45   52 1   
    51   46   47 1   
    52   46   48 1   
    53   53   54 1   
    54   53   57 1   
    55   54   55 1   
    56   54   58 1   
    57   54   59 1   
    58   55   56 2   
    59   55   60 1   
    60   60   61 1   
    61   60   68 1   
    62   61   62 1   
    63   61   64 1   
    64   61   69 1   
    65   62   63 2   
    66   62   74 1   
    67   64   65 1   
    68   64   70 1   
    69   64   71 1   
    70   65   66 1   
    71   65   67 2   
    72   66   72 1   
    73   66   73 1   
    74   74   75 1   
    75   74   78 1   
    76   75   76 1   
    77   75   79 1   
    78   75   80 1   
    79   76   77 2   
    80   76   81 1   
    81   81   82 1   
    82   81   93 1   
    83   82   83 1   
    84   82   85 1   
    85   82   94 1   
    86   83   84 2   
    87   83  102 1   
    88   85   86 1   
    89   85   95 1   
    90   85   96 1   
    91   86   87 ar  
    92   86   88 ar  
    93   87   89 ar  
    94   87   97 1   
    95   88   90 ar  
    96   88   98 1   
    97   89   91 ar  
    98   89   99 1   
    99   90   91 ar  
   100   90  100 1   
   101   91   92 1   
   102   92  101 1   
   103  102  103 1   
   104  102  110 1   
   105  103  104 1   
   106  103  106 1   
   107  103  111 1   
   108  104  105 2   
   109  104  121 1   
   110  106  107 1   
   111  106  108 1   
   112  106  112 1   
   113  107  109 1   
   114  107  113 1   
   115  107  114 1   
   116  108  115 1   
   117  108  116 1   
   118  108  117 1   
   119  109  118 1   
   120  109  119 1   
   121  109  120 1   
   122  121  122 1   
   123  121  127 1   
   124  122  123 1   
   125  122  125 1   
   126  122  128 1   
   127  123  124 2   
   128  123  132 1   
   129  125  126 1   
   130  125  129 1   
   131  125  130 1   
   132  126  131 1   
   133  132  133 1   
   134  132  137 1   
   135  133  134 1   
   136  133  136 1   
   137  133  138 1   
   138  134  135 2   
   139  134  142 1   
   140  136  139 1   
   141  136  140 1   
   142  136  141 1   
   143  142  143 1   
   144  142  147 1   
   145  143  144 1   
   146  143  146 1   
   147  143  148 1   
   148  144  145 2   
   149  144  152 1   
   150  146  149 1   
   151  146  150 1   
   152  146  151 1   
   153  152  153 1   
   154  152  161 1   
   155  153  154 1   
   156  153  156 1   
   157  153  162 1   
   158  154  155 2   
   159  154  167 1   
   160  156  157 1   
   161  156  163 1   
   162  156  164 1   
   163  157  158 1   
   164  157  165 1   
   165  157  166 1   
   166  158  159 1   
   167  158  160 1   
   168  167  168 1   
   169  167  172 1   
   170  168  169 1   
   171  168  170 1   
   172  168  171 1   
   173  174  175 1   
   174  174  176 1   
   175  177  178 1   
   176  177  179 1   
@<TRIPOS>SUBSTRUCTURE
     1 MOL         1 TEMP              0 ****  ****    0 ROOT
