@<TRIPOS>MOLECULE
MOL
  172   171     1     0     0
SMALL
resp


@<TRIPOS>ATOM
      1 C1          0.0370   -3.4060    5.3750 c3        1 MOL     -0.392458
      2 C2          0.5990   -3.0030    3.9840 c         1 MOL      0.674421
      3 O1          0.0240   -3.4280    2.9680 o         1 MOL     -0.561005
      4 H1          0.7620   -3.1510    6.1480 hc        1 MOL      0.094197
      5 H2         -0.8950   -2.8720    5.5610 hc        1 MOL      0.094197
      6 H3         -0.1500   -4.4800    5.3950 hc        1 MOL      0.094197
      7 N1          1.8090   -2.4540    3.9540 n         1 MOL     -0.534568
      8 C3          2.4430   -2.3030    2.6380 c3        1 MOL      0.090301
      9 C4          3.0510   -3.6140    2.0270 c         1 MOL      0.553154
     10 O2          4.2170   -3.9860    2.2600 o         1 MOL     -0.605861
     11 C5          3.4470   -1.0890    2.8380 c3        1 MOL     -0.328472
     12 C6          3.9890   -0.6450    1.4520 c         1 MOL      0.699292
     13 O3          5.0060    0.0100    1.5490 o         1 MOL     -0.673732
     14 O4          3.4990   -0.9050    0.3050 o         1 MOL     -0.673732
     15 H4          2.2800   -2.1700    4.8030 hn        1 MOL      0.308095
     16 H5          1.7270   -1.9000    1.9140 h1        1 MOL      0.081968
     17 H6          4.3640   -1.3330    3.3870 hc        1 MOL      0.103273
     18 H7          2.8880   -0.3110    3.3590 hc        1 MOL      0.103273
     19 N2          2.4020   -4.1940    1.0370 n         1 MOL     -0.474256
     20 C7          2.8310   -5.3830    0.2530 c3        1 MOL      0.232317
     21 C8          3.8710   -4.9870   -0.8300 c         1 MOL      0.395204
     22 O5          4.4390   -5.8540   -1.4450 o         1 MOL     -0.554648
     23 C9          1.6710   -6.3090   -0.1940 c3        1 MOL     -0.158026
     24 H8          1.5630   -3.6960    0.7590 hn        1 MOL      0.311532
     25 H9          3.3520   -6.0030    0.9700 h1        1 MOL      0.018970
     26 H10         1.0050   -6.6070    0.6060 hc        1 MOL      0.046742
     27 H11         1.0460   -5.8110   -0.9290 hc        1 MOL      0.046742
     28 H12         2.0830   -7.2000   -0.6730 hc        1 MOL      0.046742
     29 N3          4.1990   -3.7190   -1.0010 n         1 MOL     -0.048111
     30 C10         5.1140   -3.2990   -2.1030 c3        1 MOL     -0.339040
     31 C11         6.4980   -2.9580   -1.6070 c         1 MOL      0.519175
     32 O6          7.4340   -2.6440   -2.3810 o         1 MOL     -0.522665
     33 C12         4.5510   -2.0660   -2.9200 c3        1 MOL     -0.025216
     34 C13         3.1340   -2.2610   -3.3710 c         1 MOL      0.592009
     35 O7          2.2460   -1.4990   -2.8850 o         1 MOL     -0.667097
     36 O8          2.7950   -3.2410   -4.0750 o         1 MOL     -0.667097
     37 H13         3.6370   -2.9670   -0.6050 hn        1 MOL      0.182446
     38 H14         5.2070   -4.1710   -2.7520 h1        1 MOL      0.172248
     39 H15         5.1040   -1.9190   -3.8470 hc        1 MOL      0.020689
     40 H16         4.7660   -1.2160   -2.2740 hc        1 MOL      0.020689
     41 N4          6.5680   -2.7510   -0.2810 n         1 MOL     -0.311601
     42 C14         7.6670   -2.0840    0.4600 c3        1 MOL     -0.122958
     43 C15         7.9920   -0.6830   -0.0400 c         1 MOL      0.373258
     44 O9          9.1940   -0.2610   -0.2330 o         1 MOL     -0.547209
     45 H17         5.7220   -2.8150    0.2660 hn        1 MOL      0.202201
     46 H18         8.5470   -2.7000    0.2740 h1        1 MOL      0.106287
     47 H19         7.4530   -2.0970    1.5300 h1        1 MOL      0.106287
     48 N5          6.9350    0.0800   -0.4800 n         1 MOL     -0.154428
     49 C16         7.2470    1.3680   -1.2500 c3        1 MOL     -0.031937
     50 C17         7.1750    2.6210   -0.4160 c         1 MOL      0.398380
     51 O10         7.6340    3.6700   -0.7460 o         1 MOL     -0.553296
     52 C18         6.3670    1.3640   -2.4690 c3        1 MOL     -0.323126
     53 C19         4.9180    1.8860   -2.3010 c         1 MOL      0.777138
     54 N6          4.7860    3.1730   -2.0810 n         1 MOL     -0.769082
     55 O11         3.8910    1.2540   -2.2790 o         1 MOL     -0.632061
     56 H20         5.9680   -0.1950   -0.3880 hn        1 MOL      0.290583
     57 H21         8.2570    1.3020   -1.6430 h1        1 MOL      0.149941
     58 H22         6.1640    0.3810   -2.8820 hc        1 MOL      0.101837
     59 H23         6.7720    1.9630   -3.2840 hc        1 MOL      0.101837
     60 H24         5.5910    3.7860   -2.0730 hn        1 MOL      0.317765
     61 H25         3.8680    3.5570   -1.8890 hn        1 MOL      0.317765
     62 N7          6.4750    2.5710    0.7170 n         1 MOL     -0.174655
     63 C20         6.2440    3.6460    1.6760 c3        1 MOL      0.047466
     64 C21         4.8390    4.3070    1.6790 c         1 MOL      0.422174
     65 O12         4.6170    5.1300    2.5650 o         1 MOL     -0.558325
     66 H26         5.9940    1.6920    0.8490 hn        1 MOL      0.105422
     67 H27         6.9510    4.4720    1.5840 h1        1 MOL      0.060823
     68 H28         6.5370    3.2280    2.6360 h1        1 MOL      0.060823
     69 N8          3.8660    3.8500    0.8870 n         1 MOL     -0.227808
     70 C22         2.4690    4.3610    0.8860 c3        1 MOL      0.034275
     71 C23         1.4350    3.2850    0.8940 c         1 MOL      0.723321
     72 O13         1.6790    2.1650    0.6280 o         1 MOL     -0.658718
     73 C24         2.1800    5.3620   -0.2440 c3        1 MOL      0.178214
     74 C25         3.1200    6.5710   -0.1700 c3        1 MOL     -0.462159
     75 O14         2.3210    4.7550   -1.5100 oh        1 MOL     -0.528097
     76 H29         4.2180    3.1660    0.2410 hn        1 MOL      0.191387
     77 H30         2.3930    4.9260    1.8060 h1        1 MOL      0.072095
     78 H31         1.1220    5.6290   -0.1710 h1        1 MOL      0.056768
     79 H32         2.3270    5.5060   -2.1130 ho        1 MOL      0.396683
     80 H33         3.3940    6.8850    0.8400 hc        1 MOL      0.128579
     81 H34         4.0980    6.4150   -0.6170 hc        1 MOL      0.128579
     82 H35         2.7510    7.3950   -0.7910 hc        1 MOL      0.128579
     83 N9          0.2290    3.6570    1.2300 n         1 MOL     -0.614565
     84 C26        -0.9720    2.8930    1.3300 c3        1 MOL      0.150004
     85 C27        -1.7940    3.0320    0.0020 c         1 MOL      0.458838
     86 O15        -2.1740    4.1400   -0.4150 o         1 MOL     -0.578870
     87 C28        -1.7420    3.3480    2.6210 c3        1 MOL      0.103685
     88 C29        -1.0580    2.9190    4.0010 c3        1 MOL      0.101368
     89 C30        -3.2000    2.8800    2.6640 c3        1 MOL     -0.153232
     90 C31        -1.8230    3.3790    5.2390 c3        1 MOL     -0.250895
     91 H36         0.1100    4.6610    1.2960 hn        1 MOL      0.246982
     92 H37        -0.6620    1.8500    1.4490 h1        1 MOL      0.139490
     93 H38        -1.8040    4.4380    2.5940 hc        1 MOL     -0.013372
     94 H39        -0.0870    3.4260    4.0160 hc        1 MOL     -0.021192
     95 H40        -0.8020    1.8650    3.9220 hc        1 MOL     -0.021192
     96 H41        -3.6520    3.4510    1.8520 hc        1 MOL      0.024360
     97 H42        -3.1650    1.8020    2.4700 hc        1 MOL      0.024360
     98 H43        -3.6490    3.0790    3.6370 hc        1 MOL      0.024360
     99 H44        -2.1330    4.4190    5.1570 hc        1 MOL      0.058370
    100 H45        -2.7120    2.8340    5.5490 hc        1 MOL      0.058370
    101 H46        -1.1590    3.2150    6.0870 hc        1 MOL      0.058370
    102 N10        -2.1900    1.9120   -0.5800 n         1 MOL     -0.253369
    103 C32        -3.1830    1.6930   -1.6310 c3        1 MOL      0.210669
    104 C33        -4.5100    1.3360   -1.0410 c         1 MOL      0.500753
    105 O16        -4.6200    1.0560    0.1280 o         1 MOL     -0.392061
    106 C34        -2.7100    0.7030   -2.6320 c3        1 MOL     -0.316098
    107 C35        -1.2320    0.9210   -3.1010 c         1 MOL      0.810624
    108 O17        -0.9750    1.8680   -3.8350 o         1 MOL     -0.717908
    109 O18        -0.3880    0.1320   -2.6660 o         1 MOL     -0.717908
    110 H47        -1.9200    1.1060   -0.0500 hn        1 MOL      0.084818
    111 H48        -3.2950    2.6550   -2.1410 h1        1 MOL      0.014655
    112 H49        -3.4150    0.6140   -3.4540 hc        1 MOL      0.070067
    113 H50        -2.7510   -0.2380   -2.0710 hc        1 MOL      0.070067
    114 N11        -5.5620    1.2530   -1.8520 n         1 MOL     -0.699075
    115 C36        -6.9220    0.8990   -1.4440 c3        1 MOL      0.503254
    116 C37        -7.0250   -0.4010   -0.6950 c         1 MOL      0.304002
    117 O19        -7.5320   -0.3490    0.3730 o         1 MOL     -0.506081
    118 C38        -7.9820    1.0010   -2.4940 c3        1 MOL     -0.247277
    119 C39        -9.4000    1.0050   -2.0370 ca        1 MOL      0.103700
    120 C40        -9.8140    2.1650   -1.3280 ca        1 MOL     -0.148968
    121 C41       -10.3120   -0.0540   -2.2480 ca        1 MOL     -0.148968
    122 C42       -11.1400    2.2680   -0.8670 ca        1 MOL     -0.132877
    123 C43       -11.6550    0.1470   -1.9150 ca        1 MOL     -0.132877
    124 C44       -12.0650    1.3040   -1.2870 ca        1 MOL     -0.088707
    125 H51        -5.3910    1.4390   -2.8320 hn        1 MOL      0.303437
    126 H52        -7.1930    1.6820   -0.7350 h1        1 MOL      0.009218
    127 H53        -7.7650    0.2210   -3.2290 hc        1 MOL      0.060833
    128 H54        -7.9060    1.9830   -2.9580 hc        1 MOL      0.060833
    129 H55        -9.0730    2.9260   -1.1480 ha        1 MOL      0.117108
    130 H56       -10.0060   -1.0050   -2.6670 ha        1 MOL      0.117108
    131 H57       -11.4820    3.0840   -0.2490 ha        1 MOL      0.115741
    132 H58       -12.3970   -0.6380   -1.9490 ha        1 MOL      0.115741
    133 H59       -13.1090    1.5100   -1.0810 ha        1 MOL      0.086786
    134 N12        -6.5180   -1.5040   -1.2140 n         1 MOL     -0.094597
    135 C45        -6.7010   -2.7900   -0.5070 c3        1 MOL      0.101208
    136 C46        -5.9570   -2.8490    0.7550 c         1 MOL      0.463663
    137 O20        -6.5030   -3.2390    1.7170 o         1 MOL     -0.529357
    138 C47        -6.0930   -3.9040   -1.4340 c3        1 MOL     -0.200633
    139 C48        -5.1840   -3.0870   -2.3910 c3        1 MOL     -0.024228
    140 C49        -5.7670   -1.7030   -2.4100 c3        1 MOL     -0.020234
    141 H60        -7.7450   -3.0010   -0.3090 h1        1 MOL      0.048141
    142 H61        -5.5770   -4.6980   -0.8770 hc        1 MOL      0.065924
    143 H62        -6.9510   -4.3860   -1.8910 hc        1 MOL      0.065924
    144 H63        -4.2570   -3.0400   -1.8170 hc        1 MOL      0.054829
    145 H64        -5.0010   -3.4490   -3.4030 hc        1 MOL      0.054829
    146 H65        -4.8390   -1.1200   -2.4480 h1        1 MOL      0.022148
    147 H66        -6.4080   -1.5410   -3.2750 h1        1 MOL      0.022148
    148 N13        -4.6970   -2.4030    0.8150 n         1 MOL     -0.266227
    149 C50        -3.9750   -2.2020    2.0470 c3        1 MOL     -0.051766
    150 C51        -4.6860   -1.3310    3.0470 c         1 MOL      0.471702
    151 O21        -4.7390   -1.6450    4.2130 o         1 MOL     -0.566162
    152 C52        -2.6640   -1.5560    1.6530 c3        1 MOL      0.027552
    153 C53        -1.9160   -2.0950    0.4450 c3        1 MOL      0.030303
    154 C54        -0.5240   -1.3800    0.3720 c         1 MOL      0.678814
    155 O22        -0.4770   -0.1280    0.4910 o         1 MOL     -0.742707
    156 O23         0.4440   -1.9940   -0.0940 o         1 MOL     -0.742707
    157 H67        -4.3340   -2.0740   -0.0710 hn        1 MOL      0.136510
    158 H68        -3.7480   -3.1730    2.4980 h1        1 MOL      0.083170
    159 H69        -2.0930   -1.5260    2.5830 hc        1 MOL      0.007784
    160 H70        -2.9520   -0.5130    1.5180 hc        1 MOL      0.007784
    161 H71        -2.4750   -1.9850   -0.4860 hc        1 MOL      0.007960
    162 H72        -1.6970   -3.1530    0.5830 hc        1 MOL      0.007960
    163 N14        -5.3010   -0.1650    2.6620 n         1 MOL      0.027667
    164 C55        -6.1310    0.6630    3.5590 c3        1 MOL     -0.247173
    165 H73        -6.2670    1.6500    3.1180 h1        1 MOL      0.086530
    166 H74        -7.1030    0.1880    3.6950 h1        1 MOL      0.086530
    167 H75        -5.6350    0.7620    4.5240 h1        1 MOL      0.086530
    168 H76        -5.2450    0.0400    1.6790 hn        1 MOL      0.032837
    169 Ca1         1.6910    0.2010   -1.1050 Ca        1 MOL      1.723082
    170 O24         1.1870    2.4470   -2.3490 oh        1 MOL     -0.840527
    171 H77         1.3700    3.3560   -2.1200 ho        1 MOL      0.386707
    172 H78         0.4430    2.4840   -2.9380 ho        1 MOL      0.386707
@<TRIPOS>BOND
     1    1    2 1   
     2    1    4 1   
     3    1    5 1   
     4    1    6 1   
     5    2    3 2   
     6    2    7 1   
     7    7    8 1   
     8    7   15 1   
     9    8    9 1   
    10    8   11 1   
    11    8   16 1   
    12    9   10 2   
    13    9   19 1   
    14   11   12 1   
    15   11   17 1   
    16   11   18 1   
    17   12   13 1   
    18   12   14 1   
    19   19   20 1   
    20   19   24 1   
    21   20   21 1   
    22   20   23 1   
    23   20   25 1   
    24   21   22 2   
    25   21   29 1   
    26   23   26 1   
    27   23   27 1   
    28   23   28 1   
    29   29   30 1   
    30   29   37 1   
    31   30   31 1   
    32   30   33 1   
    33   30   38 1   
    34   31   32 2   
    35   31   41 1   
    36   33   34 1   
    37   33   39 1   
    38   33   40 1   
    39   34   35 1   
    40   34   36 1   
    41   41   42 1   
    42   41   45 1   
    43   42   43 1   
    44   42   46 1   
    45   42   47 1   
    46   43   44 2   
    47   43   48 1   
    48   48   49 1   
    49   48   56 1   
    50   49   50 1   
    51   49   52 1   
    52   49   57 1   
    53   50   51 2   
    54   50   62 1   
    55   52   53 1   
    56   52   58 1   
    57   52   59 1   
    58   53   54 1   
    59   53   55 2   
    60   54   60 1   
    61   54   61 1   
    62   62   63 1   
    63   62   66 1   
    64   63   64 1   
    65   63   67 1   
    66   63   68 1   
    67   64   65 2   
    68   64   69 1   
    69   69   70 1   
    70   69   76 1   
    71   70   71 1   
    72   70   73 1   
    73   70   77 1   
    74   71   72 2   
    75   71   83 1   
    76   73   74 1   
    77   73   75 1   
    78   73   78 1   
    79   74   80 1   
    80   74   81 1   
    81   74   82 1   
    82   75   79 1   
    83   83   84 1   
    84   83   91 1   
    85   84   85 1   
    86   84   87 1   
    87   84   92 1   
    88   85   86 2   
    89   85  102 1   
    90   87   88 1   
    91   87   89 1   
    92   87   93 1   
    93   88   90 1   
    94   88   94 1   
    95   88   95 1   
    96   89   96 1   
    97   89   97 1   
    98   89   98 1   
    99   90   99 1   
   100   90  100 1   
   101   90  101 1   
   102  102  103 1   
   103  102  110 1   
   104  103  104 1   
   105  103  106 1   
   106  103  111 1   
   107  104  105 2   
   108  104  114 1   
   109  106  107 1   
   110  106  112 1   
   111  106  113 1   
   112  107  108 1   
   113  107  109 1   
   114  114  115 1   
   115  114  125 1   
   116  115  116 1   
   117  115  118 1   
   118  115  126 1   
   119  116  117 2   
   120  116  134 1   
   121  118  119 1   
   122  118  127 1   
   123  118  128 1   
   124  119  120 ar  
   125  119  121 ar  
   126  120  122 ar  
   127  120  129 1   
   128  121  123 ar  
   129  121  130 1   
   130  122  124 ar  
   131  122  131 1   
   132  123  124 ar  
   133  123  132 1   
   134  124  133 1   
   135  134  135 1   
   136  134  140 1   
   137  135  136 1   
   138  135  138 1   
   139  135  141 1   
   140  136  137 2   
   141  136  148 1   
   142  138  139 1   
   143  138  142 1   
   144  138  143 1   
   145  139  140 1   
   146  139  144 1   
   147  139  145 1   
   148  140  146 1   
   149  140  147 1   
   150  148  149 1   
   151  148  157 1   
   152  149  150 1   
   153  149  152 1   
   154  149  158 1   
   155  150  151 2   
   156  150  163 1   
   157  152  153 1   
   158  152  159 1   
   159  152  160 1   
   160  153  154 1   
   161  153  161 1   
   162  153  162 1   
   163  154  155 1   
   164  154  156 1   
   165  163  164 1   
   166  163  168 1   
   167  164  165 1   
   168  164  166 1   
   169  164  167 1   
   170  170  171 1   
   171  170  172 1   
@<TRIPOS>SUBSTRUCTURE
     1 MOL         1 TEMP              0 ****  ****    0 ROOT
