@<TRIPOS>MOLECULE
MOL
  179   176     1     0     0
SMALL
resp


@<TRIPOS>ATOM
      1 C1          1.9190    3.2830    4.8140 c3        1 MOL     -0.313192
      2 C2          1.2880    2.9540    3.4310 c         1 MOL      0.593045
      3 O1          1.9800    2.9560    2.4000 o         1 MOL     -0.551882
      4 H1          1.2550    2.9360    5.6070 hc        1 MOL      0.084558
      5 H2          2.8820    2.7810    4.9030 hc        1 MOL      0.084558
      6 H3          2.0600    4.3600    4.9040 hc        1 MOL      0.084558
      7 N1         -0.0780    2.8500    3.3980 n         1 MOL     -0.615744
      8 C3         -0.8680    2.6460    2.2180 c3        1 MOL      0.063004
      9 C4         -1.4290    3.9640    1.6220 c         1 MOL      0.611491
     10 O2         -2.6120    4.2640    1.9270 o         1 MOL     -0.534658
     11 C5         -1.9690    1.5970    2.6090 c3        1 MOL     -0.274274
     12 C6         -2.8470    1.1950    1.3680 c         1 MOL      0.792226
     13 O3         -3.9370    0.6150    1.6320 o         1 MOL     -0.733916
     14 O4         -2.4900    1.3970    0.1630 o         1 MOL     -0.733916
     15 H4         -0.5970    3.0800    4.2250 hn        1 MOL      0.359925
     16 H5         -0.3100    2.1920    1.4010 h1        1 MOL      0.093342
     17 H6         -2.5880    1.9880    3.4200 hc        1 MOL      0.081078
     18 H7         -1.6930    0.5740    2.8840 hc        1 MOL      0.081078
     19 N2         -0.6370    4.8710    1.0240 n         1 MOL     -0.549590
     20 C7         -1.1010    6.2440    0.5020 c3        1 MOL      0.121139
     21 C8         -2.1750    6.1820   -0.5680 c         1 MOL      0.377210
     22 O5         -2.9460    7.1170   -0.7850 o         1 MOL     -0.508566
     23 C9          0.1420    7.1320    0.0100 c3        1 MOL     -0.429198
     24 C10         1.3500    7.2250    0.9500 c3        1 MOL      0.357334
     25 C11         2.1250    8.5380    0.7670 c3        1 MOL     -0.203273
     26 C12         3.4780    8.5100    1.5660 c3        1 MOL      0.059287
     27 N3          4.1170    9.8910    1.5140 n4        1 MOL     -0.406744
     28 H8          0.3390    4.6240    0.9130 hn        1 MOL      0.354710
     29 H9         -1.5600    6.6390    1.4170 h1        1 MOL      0.088385
     30 H10        -0.3030    8.1150   -0.0730 hc        1 MOL      0.126214
     31 H11         0.4890    6.6040   -0.8870 hc        1 MOL      0.126214
     32 H12         2.0040    6.3480    0.9800 hc        1 MOL     -0.033973
     33 H13         0.9950    7.1360    1.9750 hc        1 MOL     -0.033973
     34 H14         1.5050    9.4040    1.0200 hc        1 MOL      0.067024
     35 H15         2.4200    8.5390   -0.2810 hc        1 MOL      0.067024
     36 H16         4.1100    7.7610    1.1110 hx        1 MOL      0.093253
     37 H17         3.1480    8.2960    2.5820 hx        1 MOL      0.093253
     38 H18         3.5400   10.4900    2.0850 hn        1 MOL      0.342847
     39 H19         5.0750    9.8820    1.8120 hn        1 MOL      0.342847
     40 H20         4.1400   10.2060    0.5580 hn        1 MOL      0.342847
     41 N4         -2.3150    5.0080   -1.3060 n         1 MOL     -0.196826
     42 C13        -3.4650    4.8140   -2.3040 c3        1 MOL     -0.002565
     43 C14        -4.7620    4.2930   -1.6440 c         1 MOL      0.503749
     44 O6         -5.8040    4.5730   -2.2010 o         1 MOL     -0.553671
     45 C15        -3.0380    3.9680   -3.5050 c3        1 MOL     -0.153642
     46 C16        -2.4650    2.6710   -3.0940 c         1 MOL      0.629118
     47 O7         -1.3100    2.5440   -2.6180 o         1 MOL     -0.701138
     48 O8         -3.1640    1.6240   -3.0720 o         1 MOL     -0.701138
     49 H21        -1.5880    4.3160   -1.3910 hn        1 MOL      0.194322
     50 H22        -3.6610    5.7720   -2.7900 h1        1 MOL      0.091458
     51 H23        -2.2820    4.5900   -3.9780 hc        1 MOL      0.056578
     52 H24        -3.8570    3.8020   -4.2000 hc        1 MOL      0.056578
     53 N5         -4.7270    3.4410   -0.5930 n         1 MOL     -0.164688
     54 C17        -5.8960    3.2050    0.2190 c3        1 MOL     -0.063159
     55 C18        -6.5880    1.8790   -0.0430 c         1 MOL      0.509561
     56 O9         -7.7370    1.6660    0.3010 o         1 MOL     -0.572430
     57 H25        -3.8250    3.0390   -0.3700 hn        1 MOL      0.112777
     58 H26        -6.5910    4.0480    0.1790 h1        1 MOL      0.081068
     59 H27        -5.7460    3.2000    1.2970 h1        1 MOL      0.081068
     60 N6         -5.9030    0.9140   -0.7580 n         1 MOL     -0.222772
     61 C19        -6.5410   -0.3900   -1.0780 c3        1 MOL      0.002381
     62 C20        -6.4640   -1.4420    0.0870 c         1 MOL      0.258538
     63 O10        -7.0330   -2.5150   -0.1160 o         1 MOL     -0.471762
     64 C21        -6.1260   -0.9100   -2.4850 c3        1 MOL     -0.250270
     65 C22        -4.7350   -1.5320   -2.4070 c         1 MOL      0.605775
     66 N7         -4.4460   -2.6600   -2.9780 n         1 MOL     -0.770227
     67 O11        -3.8530   -0.9850   -1.7750 o         1 MOL     -0.406746
     68 H28        -4.9650    1.0330   -1.1180 hn        1 MOL      0.118675
     69 H29        -7.5910   -0.1620   -1.2120 h1        1 MOL      0.130280
     70 H30        -6.1660   -0.1590   -3.2680 hc        1 MOL      0.095120
     71 H31        -6.8240   -1.7210   -2.6610 hc        1 MOL      0.095120
     72 H32        -5.2700   -3.1590   -3.3020 hn        1 MOL      0.361076
     73 H33        -3.6150   -3.2060   -2.8030 hn        1 MOL      0.361076
     74 N8         -5.8730   -1.1760    1.2400 n         1 MOL     -0.065070
     75 C23        -5.8760   -2.0490    2.4550 c3        1 MOL     -0.350341
     76 C24        -4.5590   -2.9830    2.4790 c         1 MOL      0.672124
     77 O12        -4.4470   -3.7530    3.4560 o         1 MOL     -0.571938
     78 H34        -5.3890   -0.2890    1.2780 hn        1 MOL      0.251917
     79 H35        -6.7910   -2.6390    2.4760 h1        1 MOL      0.156186
     80 H36        -5.9390   -1.4100    3.3350 h1        1 MOL      0.156186
     81 N9         -3.6050   -2.7430    1.5460 n         1 MOL     -0.387561
     82 C25        -2.3770   -3.4880    1.3750 c3        1 MOL      0.155308
     83 C26        -1.1550   -2.5750    1.0720 c         1 MOL      0.489745
     84 O13        -1.2970   -1.5600    0.3350 o         1 MOL     -0.580644
     85 C27        -2.5690   -4.5580    0.2880 c3        1 MOL     -0.010367
     86 C28        -3.6950   -5.5140    0.5610 ca        1 MOL      0.023371
     87 C29        -4.9880   -5.1280    0.2730 ca        1 MOL     -0.077616
     88 C30        -3.4770   -6.8470    0.9060 ca        1 MOL     -0.077616
     89 C31        -6.0370   -6.0380    0.4200 ca        1 MOL     -0.385404
     90 C32        -4.5340   -7.7500    0.9880 ca        1 MOL     -0.385404
     91 C33        -5.8290   -7.3350    0.7810 ca        1 MOL      0.489210
     92 O14        -6.8760   -8.1920    0.9570 oh        1 MOL     -0.494138
     93 H37        -3.7290   -1.9480    0.9510 hn        1 MOL      0.187730
     94 H38        -2.1610   -3.9820    2.3210 h1        1 MOL      0.013870
     95 H39        -1.6780   -5.1650    0.1220 hc        1 MOL      0.004598
     96 H40        -2.7980   -4.0880   -0.6600 hc        1 MOL      0.004598
     97 H41        -5.2060   -4.1540   -0.1350 ha        1 MOL      0.093752
     98 H42        -2.4740   -7.2030    1.0410 ha        1 MOL      0.093752
     99 H43        -7.0590   -5.7240    0.2020 ha        1 MOL      0.161436
    100 H44        -4.3700   -8.7200    1.4370 ha        1 MOL      0.161436
    101 H45        -6.4900   -8.9950    1.3010 ho        1 MOL      0.334277
    102 N10         0.0380   -2.9210    1.5000 n         1 MOL     -0.370837
    103 C34         1.3450   -2.4030    1.0730 c3        1 MOL     -0.006803
    104 C35         2.2100   -3.5120    0.4290 c         1 MOL      0.456357
    105 O15         2.3300   -4.6390    0.9200 o         1 MOL     -0.513995
    106 C36         2.1760   -1.7940    2.2560 c3        1 MOL     -0.035688
    107 C37         2.2010   -2.6170    3.5960 c3        1 MOL      0.063738
    108 C38         1.7830   -0.3960    2.4790 c3        1 MOL     -0.837113
    109 C39         2.9330   -1.8910    4.8090 c3        1 MOL     -0.221841
    110 H46         0.0530   -3.8050    1.9960 hn        1 MOL      0.258684
    111 H47         1.1630   -1.6090    0.3500 h1        1 MOL      0.186607
    112 H48         3.2090   -1.6890    1.9470 hc        1 MOL      0.081798
    113 H49         2.6530   -3.6010    3.4710 hc        1 MOL      0.026429
    114 H50         1.1800   -2.8030    3.9360 hc        1 MOL      0.026429
    115 H51         1.8810    0.1980    1.5710 hc        1 MOL      0.261390
    116 H52         0.7320   -0.3870    2.7980 hc        1 MOL      0.261390
    117 H53         2.4210    0.0930    3.2130 hc        1 MOL      0.261390
    118 H54         2.4020   -1.0140    5.1640 hc        1 MOL      0.055739
    119 H55         3.0650   -2.5760    5.6490 hc        1 MOL      0.055739
    120 H56         3.8870   -1.5070    4.4560 hc        1 MOL      0.055739
    121 N11         3.0260   -3.1120   -0.5770 n         1 MOL     -0.371378
    122 C40         4.2090   -3.8990   -0.9910 c3        1 MOL      0.254764
    123 C41         5.3420   -3.6030   -0.0540 c         1 MOL      0.390878
    124 O16         5.3150   -2.5560    0.5450 o         1 MOL     -0.349849
    125 C42         4.4750   -3.6960   -2.4730 c3        1 MOL     -0.602251
    126 O17         4.8620   -2.3540   -2.6960 oh        1 MOL     -0.190625
    127 H57         2.9490   -2.2130   -1.0340 hn        1 MOL      0.197789
    128 H58         3.8920   -4.9290   -0.8200 h1        1 MOL      0.042609
    129 H59         3.5300   -3.8760   -2.9900 h1        1 MOL      0.221199
    130 H60         5.3090   -4.3580   -2.7090 h1        1 MOL      0.221199
    131 H61         4.6850   -2.1400   -3.6210 ho        1 MOL      0.354105
    132 N12         6.5020   -4.3370   -0.1980 n         1 MOL     -0.495056
    133 C43         7.7970   -3.9010    0.2630 c3        1 MOL      0.266044
    134 C44         8.4520   -2.6780   -0.4550 c         1 MOL      0.378607
    135 O18         9.4940   -2.2520   -0.1020 o         1 MOL     -0.499016
    136 C45         8.6930   -5.1260    0.0860 c3        1 MOL     -0.304054
    137 H62         6.4760   -5.1360   -0.8090 hn        1 MOL      0.288827
    138 H63         7.7580   -3.6730    1.3320 h1        1 MOL      0.056448
    139 H64         8.2050   -5.8920    0.6810 hc        1 MOL      0.085607
    140 H65         8.7230   -5.4800   -0.9430 hc        1 MOL      0.085607
    141 H66         9.6770   -4.8720    0.4850 hc        1 MOL      0.085607
    142 N13         7.7690   -2.2140   -1.4910 n         1 MOL     -0.252965
    143 C46         8.1670   -0.9600   -2.2700 c3        1 MOL      0.159018
    144 C47         7.4670    0.2120   -1.7830 c         1 MOL      0.366684
    145 O19         7.9970    1.2280   -1.4680 o         1 MOL     -0.478968
    146 C48         8.0080   -1.2590   -3.7380 c3        1 MOL     -0.097474
    147 H67         6.9210   -2.6610   -1.7880 hn        1 MOL      0.111810
    148 H68         9.2160   -0.7020   -2.1490 h1        1 MOL      0.064317
    149 H69         8.3990   -2.2330   -4.0260 hc        1 MOL      0.018972
    150 H70         6.9450   -1.2520   -3.9770 hc        1 MOL      0.018972
    151 H71         8.5150   -0.5250   -4.3710 hc        1 MOL      0.018972
    152 N14         6.1170    0.1620   -1.6460 n         1 MOL     -0.176547
    153 C49         5.2690    1.0750   -0.8610 c3        1 MOL     -0.106930
    154 C50         5.8530    1.2110    0.5300 c         1 MOL      0.442312
    155 O20         6.0780    2.3360    1.0160 o         1 MOL     -0.552074
    156 C51         3.8210    0.6720   -0.6700 c3        1 MOL      0.108144
    157 C52         3.0460    0.7370   -2.0400 c3        1 MOL     -0.051788
    158 C53         1.4980    0.4830   -1.8140 c         1 MOL      0.659770
    159 O21         0.9360   -0.3960   -2.5210 o         1 MOL     -0.742526
    160 O22         0.9060    1.0550   -0.8900 o         1 MOL     -0.742526
    161 H72         5.6010   -0.5360   -2.1520 hn        1 MOL      0.129620
    162 H73         5.3610    2.0800   -1.2540 h1        1 MOL      0.089126
    163 H74         3.3520    1.1890    0.1740 hc        1 MOL      0.031342
    164 H75         3.7510   -0.3440   -0.2920 hc        1 MOL      0.031342
    165 H76         3.5060    0.0980   -2.7800 hc        1 MOL     -0.030062
    166 H77         3.2220    1.7520   -2.4180 hc        1 MOL     -0.030062
    167 N15         6.1270    0.1050    1.3100 n         1 MOL     -0.047163
    168 C54         6.6750    0.1370    2.7200 c3        1 MOL     -0.372394
    169 H78         6.1660   -0.6140    3.3240 h1        1 MOL      0.133577
    170 H79         7.7440   -0.0750    2.7000 h1        1 MOL      0.133577
    171 H80         6.5090    1.1240    3.1520 h1        1 MOL      0.133577
    172 H81         5.9670   -0.8030    0.9060 hn        1 MOL      0.061283
    173 Ca1        -1.4630    0.0860   -1.7820 Ca        1 MOL      1.721679
    174 O23        -1.0450   -2.5060   -2.5510 oh        1 MOL     -0.870218
    175 H82        -0.1670   -2.4650   -2.9290 ho        1 MOL      0.415845
    176 H83        -1.4970   -3.1820   -3.0620 ho        1 MOL      0.415845
    177 O24        -1.7430   -0.5720   -4.6080 oh        1 MOL     -0.870218
    178 H84        -1.6140   -1.2090   -5.3070 ho        1 MOL      0.415845
    179 H85        -1.9110    0.2560   -5.0630 ho        1 MOL      0.415845
@<TRIPOS>BOND
     1    1    2 1   
     2    1    4 1   
     3    1    5 1   
     4    1    6 1   
     5    2    3 2   
     6    2    7 1   
     7    7    8 1   
     8    7   15 1   
     9    8    9 1   
    10    8   11 1   
    11    8   16 1   
    12    9   10 2   
    13    9   19 1   
    14   11   12 1   
    15   11   17 1   
    16   11   18 1   
    17   12   13 1   
    18   12   14 1   
    19   19   20 1   
    20   19   28 1   
    21   20   21 1   
    22   20   23 1   
    23   20   29 1   
    24   21   22 2   
    25   21   41 1   
    26   23   24 1   
    27   23   30 1   
    28   23   31 1   
    29   24   25 1   
    30   24   32 1   
    31   24   33 1   
    32   25   26 1   
    33   25   34 1   
    34   25   35 1   
    35   26   27 1   
    36   26   36 1   
    37   26   37 1   
    38   27   38 1   
    39   27   39 1   
    40   27   40 1   
    41   41   42 1   
    42   41   49 1   
    43   42   43 1   
    44   42   45 1   
    45   42   50 1   
    46   43   44 2   
    47   43   53 1   
    48   45   46 1   
    49   45   51 1   
    50   45   52 1   
    51   46   47 1   
    52   46   48 1   
    53   53   54 1   
    54   53   57 1   
    55   54   55 1   
    56   54   58 1   
    57   54   59 1   
    58   55   56 2   
    59   55   60 1   
    60   60   61 1   
    61   60   68 1   
    62   61   62 1   
    63   61   64 1   
    64   61   69 1   
    65   62   63 2   
    66   62   74 1   
    67   64   65 1   
    68   64   70 1   
    69   64   71 1   
    70   65   66 1   
    71   65   67 2   
    72   66   72 1   
    73   66   73 1   
    74   74   75 1   
    75   74   78 1   
    76   75   76 1   
    77   75   79 1   
    78   75   80 1   
    79   76   77 2   
    80   76   81 1   
    81   81   82 1   
    82   81   93 1   
    83   82   83 1   
    84   82   85 1   
    85   82   94 1   
    86   83   84 2   
    87   83  102 1   
    88   85   86 1   
    89   85   95 1   
    90   85   96 1   
    91   86   87 ar  
    92   86   88 ar  
    93   87   89 ar  
    94   87   97 1   
    95   88   90 ar  
    96   88   98 1   
    97   89   91 ar  
    98   89   99 1   
    99   90   91 ar  
   100   90  100 1   
   101   91   92 1   
   102   92  101 1   
   103  102  103 1   
   104  102  110 1   
   105  103  104 1   
   106  103  106 1   
   107  103  111 1   
   108  104  105 2   
   109  104  121 1   
   110  106  107 1   
   111  106  108 1   
   112  106  112 1   
   113  107  109 1   
   114  107  113 1   
   115  107  114 1   
   116  108  115 1   
   117  108  116 1   
   118  108  117 1   
   119  109  118 1   
   120  109  119 1   
   121  109  120 1   
   122  121  122 1   
   123  121  127 1   
   124  122  123 1   
   125  122  125 1   
   126  122  128 1   
   127  123  124 2   
   128  123  132 1   
   129  125  126 1   
   130  125  129 1   
   131  125  130 1   
   132  126  131 1   
   133  132  133 1   
   134  132  137 1   
   135  133  134 1   
   136  133  136 1   
   137  133  138 1   
   138  134  135 2   
   139  134  142 1   
   140  136  139 1   
   141  136  140 1   
   142  136  141 1   
   143  142  143 1   
   144  142  147 1   
   145  143  144 1   
   146  143  146 1   
   147  143  148 1   
   148  144  145 2   
   149  144  152 1   
   150  146  149 1   
   151  146  150 1   
   152  146  151 1   
   153  152  153 1   
   154  152  161 1   
   155  153  154 1   
   156  153  156 1   
   157  153  162 1   
   158  154  155 2   
   159  154  167 1   
   160  156  157 1   
   161  156  163 1   
   162  156  164 1   
   163  157  158 1   
   164  157  165 1   
   165  157  166 1   
   166  158  159 1   
   167  158  160 1   
   168  167  168 1   
   169  167  172 1   
   170  168  169 1   
   171  168  170 1   
   172  168  171 1   
   173  174  175 1   
   174  174  176 1   
   175  177  178 1   
   176  177  179 1   
@<TRIPOS>SUBSTRUCTURE
     1 MOL         1 TEMP              0 ****  ****    0 ROOT
