@<TRIPOS>MOLECULE
MOL
  189   185     1     0     0
SMALL
resp


@<TRIPOS>ATOM
      1 C1         -0.0610    0.3900    6.3260 c3        1 MOL     -0.347312
      2 C2         -0.7100    0.9150    5.0210 c         1 MOL      0.737548
      3 O1         -0.0130    1.6990    4.3230 o         1 MOL     -0.628497
      4 H1          0.7960    1.0130    6.5810 hc        1 MOL      0.088596
      5 H2         -0.7910    0.4280    7.1360 hc        1 MOL      0.088596
      6 H3          0.2690   -0.6380    6.1800 hc        1 MOL      0.088596
      7 N1         -1.9080    0.5260    4.6010 n         1 MOL     -0.584241
      8 C3         -2.3680    0.6720    3.2330 c3        1 MOL      0.074924
      9 C4         -2.7210    2.1380    2.9410 c         1 MOL      0.488395
     10 O2         -3.7310    2.5740    3.4370 o         1 MOL     -0.545619
     11 C5         -3.5530   -0.3120    3.0350 c3        1 MOL     -0.112463
     12 C6         -4.0770   -0.3570    1.6000 c         1 MOL      0.782777
     13 O3         -3.4410    0.0100    0.6280 o         1 MOL     -0.736690
     14 O4         -5.1790   -0.9250    1.4350 o         1 MOL     -0.736690
     15 H4         -2.5200    0.0310    5.2260 hn        1 MOL      0.313857
     16 H5         -1.5410    0.3420    2.5990 h1        1 MOL      0.079340
     17 H6         -4.3120   -0.0420    3.7620 hc        1 MOL      0.032006
     18 H7         -3.2930   -1.3360    3.2860 hc        1 MOL      0.032006
     19 N2         -1.9450    2.8290    2.1370 n         1 MOL     -0.113070
     20 C7         -1.9930    4.3470    2.0290 c3        1 MOL     -0.068813
     21 C8         -3.2860    4.7980    1.3380 c         1 MOL      0.393912
     22 O5         -3.8470    5.8720    1.5750 o         1 MOL     -0.565107
     23 C9         -0.6290    4.8250    1.5060 c3        1 MOL     -0.174786
     24 C10        -0.3550    4.4600    0.0810 c3        1 MOL      0.212917
     25 C11         1.0000    5.1180   -0.3350 c3        1 MOL     -0.006402
     26 C12         1.1540    6.5860   -0.4600 c3        1 MOL      0.132491
     27 N3          2.4290    7.0150   -1.0560 n4        1 MOL     -0.312848
     28 H8         -1.2330    2.3120    1.6540 hn        1 MOL      0.123243
     29 H9         -2.1500    4.6920    3.0540 h1        1 MOL      0.093414
     30 H10         0.1380    4.3460    2.1210 hc        1 MOL      0.069548
     31 H11        -0.4120    5.8930    1.5840 hc        1 MOL      0.069548
     32 H12        -1.1850    4.7200   -0.5800 hc        1 MOL     -0.031501
     33 H13        -0.3220    3.3790    0.0230 hc        1 MOL     -0.031501
     34 H14         1.1380    4.6470   -1.3120 hc        1 MOL     -0.035508
     35 H15         1.8110    4.7210    0.2680 hc        1 MOL     -0.035508
     36 H16         1.0290    6.9410    0.5520 hx        1 MOL      0.043471
     37 H17         0.3510    6.9600   -1.0980 hx        1 MOL      0.043471
     38 H18         2.4160    7.9730   -1.3660 hn        1 MOL      0.308631
     39 H19         3.2070    6.6830   -0.5100 hn        1 MOL      0.308631
     40 H20         2.5770    6.5460   -1.9410 hn        1 MOL      0.308631
     41 N4         -3.7720    4.0090    0.3790 n         1 MOL     -0.122405
     42 C13        -4.8810    4.2790   -0.6060 c3        1 MOL     -0.002361
     43 C14        -6.0390    3.2790   -0.3020 c         1 MOL      0.375067
     44 O6         -6.9350    3.2840   -1.1720 o         1 MOL     -0.502524
     45 C15        -4.3280    4.2730   -2.0150 c3        1 MOL     -0.117227
     46 C16        -3.0910    3.4680   -2.3680 c         1 MOL      0.809905
     47 O7         -2.1500    3.9460   -3.1420 o         1 MOL     -0.747357
     48 O8         -2.9330    2.4090   -1.7650 o         1 MOL     -0.747357
     49 H21        -3.2200    3.2200    0.0740 hn        1 MOL      0.147423
     50 H22        -5.2450    5.2970   -0.4860 h1        1 MOL      0.112960
     51 H23        -4.0740    5.2730   -2.3760 hc        1 MOL      0.018973
     52 H24        -5.1280    3.8830   -2.6460 hc        1 MOL      0.018973
     53 N5         -6.1240    2.5420    0.7930 n         1 MOL     -0.265403
     54 C17        -7.2520    1.6110    1.1260 c3        1 MOL     -0.061790
     55 C18        -7.6480    0.6200   -0.0230 c         1 MOL      0.410285
     56 O9         -8.7760    0.3700   -0.3210 o         1 MOL     -0.547662
     57 H25        -5.3120    2.5890    1.3920 hn        1 MOL      0.185736
     58 H26        -8.1480    2.2120    1.2870 h1        1 MOL      0.083351
     59 H27        -6.9890    1.1500    2.0760 h1        1 MOL      0.083351
     60 N6         -6.6270    0.2800   -0.7670 n         1 MOL     -0.005506
     61 C19        -6.8650   -0.5400   -2.0100 c3        1 MOL     -0.048334
     62 C20        -6.8350   -2.0320   -1.6900 c         1 MOL      0.392686
     63 O10        -7.0420   -2.8960   -2.5930 o         1 MOL     -0.538387
     64 C21        -5.9430   -0.1450   -3.1800 c3        1 MOL     -0.291321
     65 C22        -4.4210   -0.4400   -3.0340 c         1 MOL      0.797933
     66 O11        -3.5740    0.2440   -3.6660 o         1 MOL     -0.705522
     67 O12        -3.9670   -1.3080   -2.2390 o         1 MOL     -0.705522
     68 H28        -5.6990    0.2590   -0.3630 hn        1 MOL      0.089166
     69 H29        -7.8960   -0.3010   -2.2870 h1        1 MOL      0.132406
     70 H30        -6.0500    0.9210   -3.3930 hc        1 MOL      0.096556
     71 H31        -6.2640   -0.7340   -4.0350 hc        1 MOL      0.096556
     72 N7         -6.5420   -2.3610   -0.4550 n         1 MOL     -0.267526
     73 C23        -6.5160   -3.7670    0.0000 c3        1 MOL     -0.047475
     74 C24        -5.1780   -4.4520   -0.1650 c         1 MOL      0.459754
     75 O13        -5.1320   -5.6670   -0.0620 o         1 MOL     -0.592683
     76 H32        -6.3910   -1.6630    0.2550 hn        1 MOL      0.272718
     77 H33        -7.2710   -4.2910   -0.5880 h1        1 MOL      0.077211
     78 H34        -6.8850   -3.8650    1.0160 h1        1 MOL      0.077211
     79 N8         -4.1850   -3.7810   -0.5960 n         1 MOL     -0.107954
     80 C25        -2.8570   -4.4090   -0.8820 c3        1 MOL     -0.330876
     81 C26        -1.7490   -3.5140   -0.3320 c         1 MOL      0.720013
     82 O14        -1.8150   -2.3090   -0.3870 o         1 MOL     -0.616603
     83 C27        -2.6020   -4.7530   -2.3500 c3        1 MOL      0.589684
     84 C28        -3.4760   -5.9620   -2.8480 c3        1 MOL     -0.516801
     85 O15        -2.7330   -3.7110   -3.2500 oh        1 MOL     -0.630483
     86 H35        -4.4110   -2.8220   -0.8200 hn        1 MOL      0.197561
     87 H36        -2.7420   -5.3630   -0.3570 h1        1 MOL      0.126408
     88 H37        -1.5630   -5.0760   -2.3780 h1        1 MOL     -0.070029
     89 H38        -3.1970   -3.0030   -2.8090 ho        1 MOL      0.393667
     90 H39        -3.1640   -6.8740   -2.3680 hc        1 MOL      0.134147
     91 H40        -4.5070   -5.7260   -2.5800 hc        1 MOL      0.134147
     92 H41        -3.4510   -5.9230   -3.9430 hc        1 MOL      0.134147
     93 N9         -0.7880   -4.1690    0.3640 n         1 MOL     -0.635432
     94 C29         0.3790   -3.4640    0.8640 c3        1 MOL      0.038668
     95 C30         1.5730   -3.6000   -0.0860 c         1 MOL      0.576307
     96 O16         2.0160   -4.7400   -0.2900 o         1 MOL     -0.580189
     97 C31         0.7810   -4.0390    2.2830 c3        1 MOL      0.216556
     98 C32        -0.2940   -3.9140    3.3550 c3        1 MOL      0.134635
     99 C33         2.1360   -3.6150    2.8200 c3        1 MOL     -0.253215
    100 C34         0.0170   -4.3110    4.8370 c3        1 MOL     -0.252479
    101 H42        -0.8490   -5.1720    0.4380 hn        1 MOL      0.333910
    102 H43         0.1060   -2.4080    0.9510 h1        1 MOL      0.097830
    103 H44         0.8070   -5.1090    2.1260 hc        1 MOL     -0.033099
    104 H45        -1.2010   -4.4040    3.0040 hc        1 MOL     -0.028512
    105 H46        -0.4510   -2.8340    3.4250 hc        1 MOL     -0.028512
    106 H47         2.3610   -4.1220    3.7620 hc        1 MOL      0.036954
    107 H48         2.9490   -3.8410    2.1300 hc        1 MOL      0.036954
    108 H49         2.1620   -2.5420    3.0420 hc        1 MOL      0.036954
    109 H50         0.8350   -3.7770    5.3070 hc        1 MOL      0.060732
    110 H51        -0.8330   -4.1900    5.5050 hc        1 MOL      0.060732
    111 H52         0.0930   -5.3870    5.0210 hc        1 MOL      0.060732
    112 N10         2.1490   -2.4970   -0.5720 n         1 MOL     -0.324890
    113 C35         3.4310   -2.4860   -1.3630 c3        1 MOL     -0.152057
    114 C36         4.5680   -2.6010   -0.3260 c         1 MOL      0.435574
    115 O17         4.4900   -2.3560    0.8280 o         1 MOL     -0.290052
    116 C37         3.5390   -1.1620   -2.1900 c3        1 MOL      0.221572
    117 C38         2.6440   -1.1610   -3.4280 c3        1 MOL     -0.183714
    118 O18         3.3570   -0.0370   -1.4140 oh        1 MOL     -0.554302
    119 H53         1.6640   -1.6450   -0.3500 hn        1 MOL      0.260955
    120 H54         3.4410   -3.3810   -1.9850 h1        1 MOL      0.120300
    121 H55         4.5420   -1.2200   -2.6060 h1        1 MOL      0.025194
    122 H56         2.4450    0.0180   -1.1300 ho        1 MOL      0.377612
    123 H57         2.7200   -2.0220   -4.0980 hc        1 MOL      0.056831
    124 H58         1.6040   -1.0910   -3.1050 hc        1 MOL      0.056831
    125 H59         2.8180   -0.3130   -4.0950 hc        1 MOL      0.056831
    126 N11         5.7690   -2.9900   -0.8170 n         1 MOL     -0.368443
    127 C39         7.0430   -2.7890   -0.1210 c3        1 MOL     -0.020390
    128 C40         7.2550   -1.3150    0.4340 c         1 MOL      0.303632
    129 O19         7.6240   -1.1290    1.5830 o         1 MOL     -0.455392
    130 C41         8.2820   -3.0180   -0.9570 c3        1 MOL      0.140450
    131 C42         8.4190   -4.4670   -1.3910 c3        1 MOL     -0.415930
    132 O20         8.1700   -2.3460   -2.1770 oh        1 MOL     -0.651866
    133 H60         5.8120   -3.1300   -1.8290 hn        1 MOL      0.271376
    134 H61         6.9730   -3.3360    0.8200 h1        1 MOL      0.134574
    135 H62         9.2050   -2.7370   -0.4590 h1        1 MOL      0.114527
    136 H63         8.8550   -2.7330   -2.7170 ho        1 MOL      0.435972
    137 H64         9.4390   -4.5870   -1.7780 hc        1 MOL      0.124443
    138 H65         8.2470   -5.0940   -0.5230 hc        1 MOL      0.124443
    139 H66         7.6440   -4.7660   -2.0980 hc        1 MOL      0.124443
    140 N12         7.0180   -0.2960   -0.4110 n         1 MOL     -0.300986
    141 C43         7.1280    1.1630   -0.1770 c3        1 MOL      0.129965
    142 C44         6.0850    1.6730    0.8860 c         1 MOL      0.337894
    143 O21         6.5050    2.5060    1.6950 o         1 MOL     -0.505810
    144 C45         6.9190    1.8560   -1.5970 c3        1 MOL     -0.355493
    145 C46         8.1410    1.6890   -2.4760 c3        1 MOL      0.162435
    146 C47         7.9720    2.4520   -3.8170 c3        1 MOL     -0.110144
    147 C48         8.5370    3.8600   -3.6010 c3        1 MOL     -0.045551
    148 N13         8.6590    4.6390   -4.9280 n4        1 MOL     -0.357652
    149 H67         6.7600   -0.5300   -1.3600 hn        1 MOL      0.329137
    150 H68         8.0950    1.3870    0.2790 h1        1 MOL      0.102044
    151 H69         6.7410    2.9080   -1.3520 hc        1 MOL      0.084488
    152 H70         6.1480    1.3480   -2.1640 hc        1 MOL      0.084488
    153 H71         8.2390    0.6480   -2.7440 hc        1 MOL     -0.007685
    154 H72         9.0110    1.9790   -1.8940 hc        1 MOL     -0.007685
    155 H73         6.9160    2.4580   -4.1030 hc        1 MOL      0.070523
    156 H74         8.4430    1.8340   -4.5750 hc        1 MOL      0.070523
    157 H75         9.5090    3.7750   -3.1050 hx        1 MOL      0.121267
    158 H76         7.9330    4.5040   -2.9580 hx        1 MOL      0.121267
    159 H77         7.7860    4.6520   -5.4430 hn        1 MOL      0.285956
    160 H78         8.9540    5.5780   -4.7150 hn        1 MOL      0.285956
    161 H79         9.2750    4.1240   -5.5400 hn        1 MOL      0.285956
    162 N14         4.8980    1.0080    1.0710 n         1 MOL     -0.035839
    163 C49         3.9690    1.1090    2.2390 c3        1 MOL     -0.096336
    164 C50         4.5350    0.5530    3.5770 c         1 MOL      0.501634
    165 O22         4.3420    1.2370    4.6040 o         1 MOL     -0.538517
    166 C51         2.6470    0.3440    1.8690 c3        1 MOL      0.146498
    167 C52         1.8220    1.3530    0.9600 c3        1 MOL     -0.294864
    168 C53         0.5690    0.7120    0.3390 c         1 MOL      0.799112
    169 O23         0.6570   -0.2290   -0.4810 o         1 MOL     -0.754129
    170 O24        -0.5950    1.1130    0.5910 o         1 MOL     -0.754129
    171 H80         4.6650    0.3380    0.3530 hn        1 MOL     -0.048850
    172 H81         3.7140    2.1250    2.5110 h1        1 MOL      0.081660
    173 H82         2.2020    0.0530    2.8110 hc        1 MOL      0.002349
    174 H83         2.7850   -0.5550    1.2560 hc        1 MOL      0.002349
    175 H84         2.3580    1.8620    0.1570 hc        1 MOL      0.093101
    176 H85         1.4290    2.0360    1.7140 hc        1 MOL      0.093101
    177 N15         5.2550   -0.5620    3.5560 n         1 MOL     -0.147007
    178 C54         6.0920   -1.0040    4.7250 c3        1 MOL     -0.267988
    179 H86         6.7350   -0.1820    5.0420 h1        1 MOL      0.113758
    180 H87         5.4420   -1.2960    5.5490 h1        1 MOL      0.113758
    181 H88         6.7090   -1.8530    4.4300 h1        1 MOL      0.113758
    182 H89         5.2410   -1.1670    2.7510 hn        1 MOL      0.160170
    183 Ca1        -1.8210    0.0540   -1.4130 Ca        1 MOL      1.804936
    184 O25        -0.9050   -1.7400   -3.1050 oh        1 MOL     -0.879354
    185 H90        -1.1440   -2.6350   -3.3380 ho        1 MOL      0.403590
    186 H91        -0.6410   -1.3390   -3.9300 ho        1 MOL      0.403590
    187 O26        -0.3550    1.7170   -3.1400 oh        1 MOL     -0.879354
    188 H92         0.3940    1.8540   -3.7230 ho        1 MOL      0.403590
    189 H93        -0.7900    2.5660   -3.1080 ho        1 MOL      0.403590
@<TRIPOS>BOND
     1    1    2 1   
     2    1    4 1   
     3    1    5 1   
     4    1    6 1   
     5    2    3 2   
     6    2    7 1   
     7    7    8 1   
     8    7   15 1   
     9    8    9 1   
    10    8   11 1   
    11    8   16 1   
    12    9   10 2   
    13    9   19 1   
    14   11   12 1   
    15   11   17 1   
    16   11   18 1   
    17   12   13 1   
    18   12   14 1   
    19   19   20 1   
    20   19   28 1   
    21   20   21 1   
    22   20   23 1   
    23   20   29 1   
    24   21   22 2   
    25   21   41 1   
    26   23   24 1   
    27   23   30 1   
    28   23   31 1   
    29   24   25 1   
    30   24   32 1   
    31   24   33 1   
    32   25   26 1   
    33   25   34 1   
    34   25   35 1   
    35   26   27 1   
    36   26   36 1   
    37   26   37 1   
    38   27   38 1   
    39   27   39 1   
    40   27   40 1   
    41   41   42 1   
    42   41   49 1   
    43   42   43 1   
    44   42   45 1   
    45   42   50 1   
    46   43   44 2   
    47   43   53 1   
    48   45   46 1   
    49   45   51 1   
    50   45   52 1   
    51   46   47 1   
    52   46   48 1   
    53   53   54 1   
    54   53   57 1   
    55   54   55 1   
    56   54   58 1   
    57   54   59 1   
    58   55   56 2   
    59   55   60 1   
    60   60   61 1   
    61   60   68 1   
    62   61   62 1   
    63   61   64 1   
    64   61   69 1   
    65   62   63 2   
    66   62   72 1   
    67   64   65 1   
    68   64   70 1   
    69   64   71 1   
    70   65   66 1   
    71   65   67 1   
    72   72   73 1   
    73   72   76 1   
    74   73   74 1   
    75   73   77 1   
    76   73   78 1   
    77   74   75 2   
    78   74   79 1   
    79   79   80 1   
    80   79   86 1   
    81   80   81 1   
    82   80   83 1   
    83   80   87 1   
    84   81   82 2   
    85   81   93 1   
    86   83   84 1   
    87   83   85 1   
    88   83   88 1   
    89   84   90 1   
    90   84   91 1   
    91   84   92 1   
    92   85   89 1   
    93   93   94 1   
    94   93  101 1   
    95   94   95 1   
    96   94   97 1   
    97   94  102 1   
    98   95   96 2   
    99   95  112 1   
   100   97   98 1   
   101   97   99 1   
   102   97  103 1   
   103   98  100 1   
   104   98  104 1   
   105   98  105 1   
   106   99  106 1   
   107   99  107 1   
   108   99  108 1   
   109  100  109 1   
   110  100  110 1   
   111  100  111 1   
   112  112  113 1   
   113  112  119 1   
   114  113  114 1   
   115  113  116 1   
   116  113  120 1   
   117  114  115 2   
   118  114  126 1   
   119  116  117 1   
   120  116  118 1   
   121  116  121 1   
   122  117  123 1   
   123  117  124 1   
   124  117  125 1   
   125  118  122 1   
   126  126  127 1   
   127  126  133 1   
   128  127  128 1   
   129  127  130 1   
   130  127  134 1   
   131  128  129 2   
   132  128  140 1   
   133  130  131 1   
   134  130  132 1   
   135  130  135 1   
   136  131  137 1   
   137  131  138 1   
   138  131  139 1   
   139  132  136 1   
   140  140  141 1   
   141  140  149 1   
   142  141  142 1   
   143  141  144 1   
   144  141  150 1   
   145  142  143 2   
   146  142  162 1   
   147  144  145 1   
   148  144  151 1   
   149  144  152 1   
   150  145  146 1   
   151  145  153 1   
   152  145  154 1   
   153  146  147 1   
   154  146  155 1   
   155  146  156 1   
   156  147  148 1   
   157  147  157 1   
   158  147  158 1   
   159  148  159 1   
   160  148  160 1   
   161  148  161 1   
   162  162  163 1   
   163  162  171 1   
   164  163  164 1   
   165  163  166 1   
   166  163  172 1   
   167  164  165 2   
   168  164  177 1   
   169  166  167 1   
   170  166  173 1   
   171  166  174 1   
   172  167  168 1   
   173  167  175 1   
   174  167  176 1   
   175  168  169 1   
   176  168  170 1   
   177  177  178 1   
   178  177  182 1   
   179  178  179 1   
   180  178  180 1   
   181  178  181 1   
   182  184  185 1   
   183  184  186 1   
   184  187  188 1   
   185  187  189 1   
@<TRIPOS>SUBSTRUCTURE
     1 MOL         1 TEMP              0 ****  ****    0 ROOT
