@<TRIPOS>MOLECULE
MOL
  183   181     1     0     0
SMALL
resp


@<TRIPOS>ATOM
      1 C1          0.0690    1.6100    6.3630 c3        1 MOL     -0.277473
      2 C2         -0.4420    1.5900    4.8880 c         1 MOL      0.858144
      3 O1          0.2670    2.1240    4.1030 o         1 MOL     -0.577848
      4 H1          1.1440    1.7960    6.3720 hc        1 MOL      0.051218
      5 H2         -0.4400    2.4000    6.9140 hc        1 MOL      0.051218
      6 H3         -0.1360    0.6490    6.8330 hc        1 MOL      0.051218
      7 N1         -1.6130    0.9970    4.5360 n         1 MOL     -0.851045
      8 C3         -2.2230    1.2070    3.2040 c3        1 MOL      0.391361
      9 C4         -2.6540    2.6530    2.8830 c         1 MOL      0.443041
     10 O2         -3.0850    3.3370    3.7920 o         1 MOL     -0.582629
     11 C5         -3.2980    0.1010    3.0740 c3        1 MOL     -0.103905
     12 C6         -4.1410    0.1990    1.8010 c         1 MOL      0.600426
     13 O3         -5.3380   -0.1790    1.8410 o         1 MOL     -0.607970
     14 O4         -3.6100    0.6450    0.7520 o         1 MOL     -0.607970
     15 H4         -2.1800    0.4830    5.2060 hn        1 MOL      0.347676
     16 H5         -1.4410    1.0010    2.4720 h1        1 MOL     -0.003235
     17 H6         -3.9640    0.2470    3.9140 hc        1 MOL      0.006503
     18 H7         -2.8060   -0.8680    3.0740 hc        1 MOL      0.006503
     19 N2         -2.6380    3.0980    1.6390 n         1 MOL     -0.098211
     20 C7         -2.8410    4.4200    1.2490 c3        1 MOL     -0.005575
     21 C8         -4.2710    4.4550    0.5420 c         1 MOL      0.550954
     22 O5         -5.0880    5.3420    0.8790 o         1 MOL     -0.613818
     23 C9         -1.7320    5.0270    0.3110 c3        1 MOL      0.251533
     24 C10        -0.2720    4.9340    0.8310 c3        1 MOL      0.097914
     25 C11        -2.0430    6.5010    0.0340 c3        1 MOL     -0.251765
     26 C12         0.7880    5.6340   -0.0470 c3        1 MOL     -0.201291
     27 H8         -2.3190    2.4580    0.9170 hn        1 MOL     -0.081464
     28 H9         -2.9190    5.0450    2.1390 h1        1 MOL      0.030255
     29 H10        -1.7530    4.4980   -0.6380 hc        1 MOL      0.006861
     30 H11        -0.0160    3.8870    0.9920 hc        1 MOL     -0.041719
     31 H12        -0.2670    5.3550    1.8380 hc        1 MOL     -0.041719
     32 H13        -1.3870    6.8140   -0.7750 hc        1 MOL      0.039787
     33 H14        -3.0140    6.5190   -0.4660 hc        1 MOL      0.039787
     34 H15        -2.1110    7.1850    0.8800 hc        1 MOL      0.039787
     35 H16         1.7930    5.3090    0.2310 hc        1 MOL      0.037071
     36 H17         0.5970    5.2540   -1.0550 hc        1 MOL      0.037071
     37 H18         0.6920    6.7150    0.0460 hc        1 MOL      0.037071
     38 N3         -4.4880    3.5370   -0.3900 n         1 MOL     -0.370041
     39 C13        -5.5230    3.6540   -1.3940 c3        1 MOL     -0.179160
     40 C14        -6.8420    2.8700   -1.1980 c         1 MOL      0.444533
     41 O6         -7.7170    2.8200   -2.0630 o         1 MOL     -0.517184
     42 C15        -4.9340    3.5930   -2.7840 c3        1 MOL      0.054155
     43 C16        -4.3720    2.2500   -3.1240 c         1 MOL      0.777929
     44 O7         -3.7190    1.6170   -2.2740 o         1 MOL     -0.719096
     45 O8         -4.3990    1.9620   -4.3300 o         1 MOL     -0.719096
     46 H19        -3.8350    2.7840   -0.5160 hn        1 MOL      0.246135
     47 H20        -5.8340    4.6930   -1.2760 h1        1 MOL      0.115140
     48 H21        -4.1770    4.3510   -3.0050 hc        1 MOL     -0.020664
     49 H22        -5.6650    3.8640   -3.5470 hc        1 MOL     -0.020664
     50 N4         -6.9940    2.1480   -0.0780 n         1 MOL     -0.241593
     51 C17        -8.3460    1.4720    0.3110 c3        1 MOL      0.017961
     52 C18        -8.5320    0.0570   -0.1520 c         1 MOL      0.600647
     53 O9         -9.6280   -0.2280   -0.7190 o         1 MOL     -0.589303
     54 H23        -6.2250    2.0100    0.5480 hn        1 MOL      0.232260
     55 H24        -9.2660    2.0050    0.0540 h1        1 MOL      0.018629
     56 H25        -8.3740    1.4970    1.3930 h1        1 MOL      0.018629
     57 N5         -7.4970   -0.8290    0.0170 n         1 MOL     -0.504884
     58 C19        -7.4680   -2.1630   -0.5680 c3        1 MOL      0.096108
     59 C20        -7.0250   -3.3260    0.3650 c         1 MOL      0.345008
     60 O10        -7.1560   -4.5020    0.1020 o         1 MOL     -0.508542
     61 C21        -6.6710   -2.2120   -1.8940 c3        1 MOL     -0.294149
     62 C22        -5.1880   -1.7430   -1.7480 c         1 MOL      0.894022
     63 O11        -4.5220   -1.5470   -2.8170 o         1 MOL     -0.829743
     64 O12        -4.6120   -1.6030   -0.6890 o         1 MOL     -0.829743
     65 H26        -6.7400   -0.6150    0.6620 hn        1 MOL      0.289919
     66 H27        -8.4720   -2.4080   -0.9000 h1        1 MOL      0.061093
     67 H28        -7.1960   -1.5250   -2.5510 hc        1 MOL      0.094953
     68 H29        -6.5170   -3.2150   -2.2930 hc        1 MOL      0.094953
     69 N6         -6.4600   -2.8450    1.5010 n         1 MOL     -0.199182
     70 C23        -5.9250   -3.5840    2.5880 c3        1 MOL      0.098985
     71 C24        -4.7510   -4.4810    2.2160 c         1 MOL      0.414376
     72 O13        -4.5860   -5.5720    2.6740 o         1 MOL     -0.546138
     73 H30        -6.2680   -1.8480    1.5130 hn        1 MOL      0.126923
     74 H31        -6.7180   -4.0080    3.1990 h1        1 MOL      0.004650
     75 H32        -5.4740   -2.7810    3.1770 h1        1 MOL      0.004650
     76 N7         -3.8250   -3.9570    1.3150 n         1 MOL     -0.183403
     77 C25        -2.4540   -4.4900    1.0270 c3        1 MOL     -0.049749
     78 C26        -1.4590   -3.2910    0.9460 c         1 MOL      0.541246
     79 O14        -1.8440   -2.1850    0.6120 o         1 MOL     -0.711578
     80 C27        -2.4140   -5.4310   -0.1700 c3        1 MOL     -0.094344
     81 C28        -3.0010   -4.9290   -1.5060 c3        1 MOL     -0.171937
     82 C29        -1.9110   -4.0860   -2.2110 c         1 MOL      0.563566
     83 N8         -1.1510   -4.7560   -3.0700 n         1 MOL     -0.752794
     84 O15        -1.7290   -2.9000   -2.0690 o         1 MOL     -0.457397
     85 H33        -3.9540   -3.0710    0.8460 hn        1 MOL      0.316011
     86 H34        -2.2340   -5.0820    1.9120 h1        1 MOL      0.043437
     87 H35        -3.0470   -6.2710    0.1130 hc        1 MOL      0.038156
     88 H36        -1.4060   -5.8160   -0.2980 hc        1 MOL      0.038156
     89 H37        -3.9610   -4.4690   -1.2680 hc        1 MOL      0.073967
     90 H38        -3.2170   -5.8180   -2.0980 hc        1 MOL      0.073967
     91 H39        -1.3480   -5.7120   -3.3430 hn        1 MOL      0.342350
     92 H40        -0.5890   -4.2100   -3.6990 hn        1 MOL      0.342350
     93 N9         -0.2170   -3.6080    1.2530 n         1 MOL     -0.321531
     94 C30         0.7970   -2.5760    1.4520 c3        1 MOL      0.029364
     95 C31         2.0080   -2.8390    0.5080 c         1 MOL      0.384235
     96 O16         2.7600   -3.6920    0.7520 o         1 MOL     -0.551341
     97 C32         1.2070   -2.3600    2.9060 c3        1 MOL      0.256229
     98 C33         2.0690   -1.1290    2.9620 c3        1 MOL     -0.249013
     99 C34        -0.0520   -2.3370    3.7890 c3        1 MOL     -0.249013
    100 H41         0.0950   -4.5370    1.5270 hn        1 MOL      0.251082
    101 H42         0.3160   -1.6690    1.0760 h1        1 MOL      0.134216
    102 H43         1.8420   -3.2000    3.2060 hc        1 MOL     -0.046868
    103 H44         1.5060   -0.2560    2.6460 hc        1 MOL      0.044780
    104 H45         2.4000   -1.0410    3.9910 hc        1 MOL      0.044780
    105 H46         2.9700   -1.3010    2.3670 hc        1 MOL      0.044780
    106 H47        -0.7520   -1.5670    3.4800 hc        1 MOL      0.044780
    107 H48        -0.5770   -3.2840    3.7120 hc        1 MOL      0.044780
    108 H49         0.1800   -2.2510    4.8540 hc        1 MOL      0.044780
    109 N10         2.1260   -2.0230   -0.5350 n         1 MOL     -0.113691
    110 C35         3.2830   -2.1840   -1.4020 c3        1 MOL      0.141455
    111 C36         4.5080   -1.6320   -0.6350 c         1 MOL      0.383694
    112 O17         4.3980   -0.6410    0.0730 o         1 MOL     -0.159243
    113 C37         3.1100   -1.4620   -2.7770 c3        1 MOL     -0.555833
    114 C38         2.1890   -2.0820   -3.7390 c         1 MOL      0.956711
    115 N11         2.5560   -3.1010   -4.5120 n         1 MOL     -0.923384
    116 O18         1.0710   -1.7400   -3.7890 o         1 MOL     -0.621671
    117 H50         1.5710   -1.1770   -0.6100 hn        1 MOL      0.005076
    118 H51         3.5270   -3.2210   -1.6340 h1        1 MOL      0.030211
    119 H52         4.0660   -1.4820   -3.2920 hc        1 MOL      0.127055
    120 H53         2.9740   -0.4160   -2.5320 hc        1 MOL      0.127055
    121 H54         3.5170   -3.3930   -4.4930 hn        1 MOL      0.379154
    122 H55         1.9310   -3.4850   -5.2110 hn        1 MOL      0.379154
    123 N12         5.6900   -2.2050   -0.8150 n         1 MOL     -0.638683
    124 C39         6.9360   -1.6150   -0.2090 c3        1 MOL      0.170573
    125 C40         7.0500   -0.0390   -0.2780 c         1 MOL      0.454311
    126 O19         7.4450    0.6750    0.6990 o         1 MOL     -0.437764
    127 C41         8.1290   -2.3510   -0.7570 c3        1 MOL     -0.068225
    128 C42         9.3890   -2.0640    0.0230 ca        1 MOL      0.154750
    129 C43         9.3580   -2.1250    1.4140 ca        1 MOL     -0.324968
    130 C44        10.5190   -1.6010   -0.6110 ca        1 MOL     -0.324968
    131 C45        10.4440   -1.7710    2.1580 ca        1 MOL     -0.068649
    132 C46        11.5670   -0.9970    0.1650 ca        1 MOL     -0.068649
    133 C47        11.5490   -1.1700    1.5790 ca        1 MOL      0.139120
    134 O20        12.4450   -0.6180    2.3860 oh        1 MOL     -0.433979
    135 H56         5.6810   -3.0960   -1.2980 hn        1 MOL      0.328763
    136 H57         6.9040   -1.8390    0.8590 h1        1 MOL      0.112671
    137 H58         8.2280   -2.2160   -1.8320 hc        1 MOL      0.027437
    138 H59         8.0670   -3.4330   -0.6540 hc        1 MOL      0.027437
    139 H60         8.4490   -2.5240    1.8400 ha        1 MOL      0.149404
    140 H61        10.4710   -1.4370   -1.6770 ha        1 MOL      0.149404
    141 H62        10.4720   -1.9010    3.2320 ha        1 MOL      0.103847
    142 H63        12.3750   -0.4840   -0.3330 ha        1 MOL      0.103847
    143 H64        13.2120   -0.2140    1.9730 ho        1 MOL      0.353147
    144 N13         6.6910    0.5660   -1.3990 n         1 MOL     -0.471084
    145 C48         6.6100    2.0250   -1.6000 c3        1 MOL      0.098085
    146 C49         5.6200    2.6590   -0.5290 c         1 MOL      0.359339
    147 O21         6.0020    3.6630    0.1360 o         1 MOL     -0.530168
    148 C50         6.3270    2.3920   -3.0660 c3        1 MOL      0.009661
    149 C51         4.8910    1.8690   -3.4550 c3        1 MOL      0.075622
    150 C52         4.3440    2.5590   -4.6910 c         1 MOL      0.747963
    151 O22         4.9060    2.2720   -5.8210 o         1 MOL     -0.741450
    152 O23         3.5050    3.4450   -4.6200 o         1 MOL     -0.741450
    153 H65         6.4790    0.0750   -2.2520 hn        1 MOL      0.349741
    154 H66         7.5620    2.4660   -1.2950 h1        1 MOL      0.035825
    155 H67         7.1270    1.9380   -3.6560 hc        1 MOL     -0.008776
    156 H68         6.3880    3.4600   -3.2840 hc        1 MOL     -0.008776
    157 H69         4.2580    2.0680   -2.5960 hc        1 MOL     -0.146202
    158 H70         4.9780    0.8090   -3.7000 hc        1 MOL     -0.146202
    159 N14         4.4840    2.0390   -0.1850 n         1 MOL     -0.032191
    160 C53         3.5520    2.4810    0.7910 c3        1 MOL     -0.224867
    161 C54         4.1230    2.3150    2.2150 c         1 MOL      0.496102
    162 O24         3.8240    3.0680    3.1370 o         1 MOL     -0.559431
    163 C55         2.2800    1.6870    0.6040 c3        1 MOL      0.117251
    164 C56         1.5200    1.9440   -0.7060 c3        1 MOL     -0.073389
    165 C57         0.1740    1.2230   -0.7680 c         1 MOL      0.664941
    166 O25        -0.8840    1.8450   -0.6780 o         1 MOL     -0.647166
    167 O26         0.0800   -0.0200   -1.0130 o         1 MOL     -0.647166
    168 H71         4.2760    1.1820   -0.6690 hn        1 MOL      0.076194
    169 H72         3.2230    3.5000    0.6040 h1        1 MOL      0.141072
    170 H73         1.5750    1.8310    1.4290 hc        1 MOL      0.030381
    171 H74         2.5070    0.6140    0.5710 hc        1 MOL      0.030381
    172 H75         2.2380    1.6090   -1.4490 hc        1 MOL      0.072228
    173 H76         1.3190    2.9900   -0.9540 hc        1 MOL      0.072228
    174 N15         4.9620    1.3050    2.3670 n         1 MOL      0.052102
    175 C58         5.5820    0.8750    3.5750 c3        1 MOL     -0.353397
    176 H77         6.5780    1.3140    3.6480 h1        1 MOL      0.112017
    177 H78         4.9820    1.1950    4.4270 h1        1 MOL      0.112017
    178 H79         5.6630   -0.2120    3.5760 h1        1 MOL      0.112017
    179 H80         5.0850    0.7190    1.5580 hn        1 MOL     -0.086901
    180 Ca1        -2.4520   -0.4320   -1.2940 Ca        1 MOL      1.757049
    181 O27        -1.1320   -0.1060   -3.6550 oh        1 MOL     -0.903649
    182 H81        -0.7540    0.3610   -4.3970 ho        1 MOL      0.443600
    183 H82        -0.6640   -0.9360   -3.6250 ho        1 MOL      0.443600
@<TRIPOS>BOND
     1    1    2 1   
     2    1    4 1   
     3    1    5 1   
     4    1    6 1   
     5    2    3 2   
     6    2    7 1   
     7    7    8 1   
     8    7   15 1   
     9    8    9 1   
    10    8   11 1   
    11    8   16 1   
    12    9   10 2   
    13    9   19 1   
    14   11   12 1   
    15   11   17 1   
    16   11   18 1   
    17   12   13 1   
    18   12   14 1   
    19   19   20 1   
    20   19   27 1   
    21   20   21 1   
    22   20   23 1   
    23   20   28 1   
    24   21   22 2   
    25   21   38 1   
    26   23   24 1   
    27   23   25 1   
    28   23   29 1   
    29   24   26 1   
    30   24   30 1   
    31   24   31 1   
    32   25   32 1   
    33   25   33 1   
    34   25   34 1   
    35   26   35 1   
    36   26   36 1   
    37   26   37 1   
    38   38   39 1   
    39   38   46 1   
    40   39   40 1   
    41   39   42 1   
    42   39   47 1   
    43   40   41 2   
    44   40   50 1   
    45   42   43 1   
    46   42   48 1   
    47   42   49 1   
    48   43   44 1   
    49   43   45 1   
    50   50   51 1   
    51   50   54 1   
    52   51   52 1   
    53   51   55 1   
    54   51   56 1   
    55   52   53 2   
    56   52   57 1   
    57   57   58 1   
    58   57   65 1   
    59   58   59 1   
    60   58   61 1   
    61   58   66 1   
    62   59   60 2   
    63   59   69 1   
    64   61   62 1   
    65   61   67 1   
    66   61   68 1   
    67   62   63 1   
    68   62   64 1   
    69   69   70 1   
    70   69   73 1   
    71   70   71 1   
    72   70   74 1   
    73   70   75 1   
    74   71   72 2   
    75   71   76 1   
    76   76   77 1   
    77   76   85 1   
    78   77   78 1   
    79   77   80 1   
    80   77   86 1   
    81   78   79 2   
    82   78   93 1   
    83   80   81 1   
    84   80   87 1   
    85   80   88 1   
    86   81   82 1   
    87   81   89 1   
    88   81   90 1   
    89   82   83 1   
    90   82   84 2   
    91   83   91 1   
    92   83   92 1   
    93   93   94 1   
    94   93  100 1   
    95   94   95 1   
    96   94   97 1   
    97   94  101 1   
    98   95   96 2   
    99   95  109 1   
   100   97   98 1   
   101   97   99 1   
   102   97  102 1   
   103   98  103 1   
   104   98  104 1   
   105   98  105 1   
   106   99  106 1   
   107   99  107 1   
   108   99  108 1   
   109  109  110 1   
   110  109  117 1   
   111  110  111 1   
   112  110  113 1   
   113  110  118 1   
   114  111  112 2   
   115  111  123 1   
   116  113  114 1   
   117  113  119 1   
   118  113  120 1   
   119  114  115 1   
   120  114  116 2   
   121  115  121 1   
   122  115  122 1   
   123  123  124 1   
   124  123  135 1   
   125  124  125 1   
   126  124  127 1   
   127  124  136 1   
   128  125  126 2   
   129  125  144 1   
   130  127  128 1   
   131  127  137 1   
   132  127  138 1   
   133  128  129 ar  
   134  128  130 ar  
   135  129  131 ar  
   136  129  139 1   
   137  130  132 ar  
   138  130  140 1   
   139  131  133 ar  
   140  131  141 1   
   141  132  133 ar  
   142  132  142 1   
   143  133  134 1   
   144  134  143 1   
   145  144  145 1   
   146  144  153 1   
   147  145  146 1   
   148  145  148 1   
   149  145  154 1   
   150  146  147 2   
   151  146  159 1   
   152  148  149 1   
   153  148  155 1   
   154  148  156 1   
   155  149  150 1   
   156  149  157 1   
   157  149  158 1   
   158  150  151 1   
   159  150  152 1   
   160  159  160 1   
   161  159  168 1   
   162  160  161 1   
   163  160  163 1   
   164  160  169 1   
   165  161  162 2   
   166  161  174 1   
   167  163  164 1   
   168  163  170 1   
   169  163  171 1   
   170  164  165 1   
   171  164  172 1   
   172  164  173 1   
   173  165  166 1   
   174  165  167 1   
   175  174  175 1   
   176  174  179 1   
   177  175  176 1   
   178  175  177 1   
   179  175  178 1   
   180  181  182 1   
   181  181  183 1   
@<TRIPOS>SUBSTRUCTURE
     1 MOL         1 TEMP              0 ****  ****    0 ROOT
