@<TRIPOS>MOLECULE
MOL
  179   176     1     0     0
SMALL
resp


@<TRIPOS>ATOM
      1 C1         -1.2800   -4.9920   -4.5020 c3        1 MOL     -0.291322
      2 C2         -1.3240   -4.0720   -3.2310 c         1 MOL      0.579729
      3 O1         -0.8380   -4.4520   -2.1810 o         1 MOL     -0.518060
      4 H1         -2.0940   -4.7220   -5.1740 hc        1 MOL      0.073363
      5 H2         -0.3280   -4.8590   -5.0150 hc        1 MOL      0.073363
      6 H3         -1.3880   -6.0340   -4.2010 hc        1 MOL      0.073363
      7 N1         -2.0120   -2.9600   -3.1560 n         1 MOL     -0.383215
      8 C3         -2.4200   -2.1900   -2.0170 c3        1 MOL      0.020729
      9 C4         -3.6450   -2.8880   -1.3380 c         1 MOL      0.436917
     10 O2         -4.6960   -2.2920   -1.2490 o         1 MOL     -0.442245
     11 C5         -2.6500   -0.7340   -2.4320 c3        1 MOL     -0.111111
     12 C6         -3.3130    0.1070   -1.3170 c         1 MOL      0.609287
     13 O3         -2.7010    0.0910   -0.2410 o         1 MOL     -0.659000
     14 O4         -4.2930    0.8080   -1.6200 o         1 MOL     -0.659000
     15 H4         -2.3390   -2.5530   -4.0180 hn        1 MOL      0.253222
     16 H5         -1.6060   -2.2090   -1.2990 h1        1 MOL      0.122695
     17 H6         -3.2980   -0.7550   -3.3030 hc        1 MOL      0.021806
     18 H7         -1.7310   -0.2310   -2.7280 hc        1 MOL      0.021806
     19 N2         -3.4660   -4.1010   -0.8970 n         1 MOL     -0.231891
     20 C7         -4.5700   -4.9300   -0.4020 c3        1 MOL     -0.262128
     21 C8         -5.2200   -4.4840    0.8770 c         1 MOL      0.450309
     22 O5         -6.3070   -4.9240    1.1520 o         1 MOL     -0.567311
     23 C9         -4.0710   -6.3650   -0.2370 c3        1 MOL      0.005466
     24 C10        -3.5490   -6.9210   -1.5740 c3        1 MOL      0.329097
     25 C11        -3.3780   -8.4350   -1.5380 c3        1 MOL     -0.285004
     26 C12        -4.5920   -9.3440   -1.5130 c3        1 MOL     -0.062365
     27 N3         -5.3830   -9.1540   -2.7510 n4        1 MOL     -0.332715
     28 H8         -2.6250   -4.5810   -1.1780 hn        1 MOL      0.200200
     29 H9         -5.3770   -5.0460   -1.1150 h1        1 MOL      0.121975
     30 H10        -4.8020   -7.0880    0.1290 hc        1 MOL      0.046023
     31 H11        -3.3190   -6.3580    0.5550 hc        1 MOL      0.046023
     32 H12        -2.5420   -6.5460   -1.7570 hc        1 MOL     -0.081531
     33 H13        -4.2330   -6.6080   -2.3650 hc        1 MOL     -0.081531
     34 H14        -2.7350   -8.6530   -0.6860 hc        1 MOL      0.111290
     35 H15        -2.7800   -8.7230   -2.3960 hc        1 MOL      0.111290
     36 H16        -5.1040   -9.2970   -0.5550 hx        1 MOL      0.126496
     37 H17        -4.2950  -10.3880   -1.6180 hx        1 MOL      0.126496
     38 H18        -5.9310   -8.3000   -2.7330 hn        1 MOL      0.325549
     39 H19        -4.7610   -9.1110   -3.5430 hn        1 MOL      0.325549
     40 H20        -5.9340   -9.9510   -3.0270 hn        1 MOL      0.325549
     41 N4         -4.5920   -3.6820    1.6430 n         1 MOL     -0.100258
     42 C13        -5.1830   -3.0590    2.8160 c3        1 MOL     -0.258230
     43 C14        -6.0180   -1.7880    2.4390 c         1 MOL      0.401870
     44 O6         -6.5980   -1.1460    3.3340 o         1 MOL     -0.502047
     45 C15        -4.0690   -2.6680    3.7880 c3        1 MOL     -0.052707
     46 C16        -3.0500   -1.7860    3.1220 c         1 MOL      0.682416
     47 O7         -2.1860   -2.1590    2.3300 o         1 MOL     -0.706430
     48 O8         -3.1140   -0.5480    3.4070 o         1 MOL     -0.706430
     49 H21        -3.7240   -3.2450    1.3490 hn        1 MOL      0.161657
     50 H22        -5.8060   -3.7870    3.3490 h1        1 MOL      0.168331
     51 H23        -3.5290   -3.5750    4.0650 hc        1 MOL      0.035571
     52 H24        -4.3810   -2.2540    4.7410 hc        1 MOL      0.035571
     53 N5         -5.9520   -1.3290    1.1880 n         1 MOL      0.034618
     54 C17        -6.7890   -0.3480    0.4850 c3        1 MOL     -0.274340
     55 C18        -6.7750    0.9980    1.1200 c         1 MOL      0.709266
     56 O9         -7.7300    1.3290    1.8890 o         1 MOL     -0.562916
     57 H25        -5.2770   -1.8610    0.6600 hn        1 MOL      0.112237
     58 H26        -7.7980   -0.7530    0.4280 h1        1 MOL      0.101985
     59 H27        -6.3670   -0.2150   -0.5140 h1        1 MOL      0.101985
     60 N6         -5.8410    1.8920    0.7410 n         1 MOL     -0.443572
     61 C19        -5.6770    3.2190    1.1910 c3        1 MOL     -0.000295
     62 C20        -5.0330    4.1240    0.1720 c         1 MOL      0.317022
     63 O10        -4.8440    5.3210    0.4010 o         1 MOL     -0.463162
     64 C21        -4.8460    3.2400    2.4940 c3        1 MOL     -0.129551
     65 C22        -3.3650    3.1270    2.3720 c         1 MOL      0.513007
     66 N7         -2.5260    4.0350    2.8470 n         1 MOL     -0.630692
     67 O11        -2.7900    2.2960    1.6260 o         1 MOL     -0.551499
     68 H28        -4.9720    1.6180    0.2990 hn        1 MOL      0.099515
     69 H29        -6.6360    3.6860    1.4160 h1        1 MOL      0.130910
     70 H30        -5.1270    2.4530    3.2040 hc        1 MOL      0.082623
     71 H31        -5.0320    4.1310    3.0950 hc        1 MOL      0.082623
     72 H32        -2.8850    4.8430    3.3400 hn        1 MOL      0.314080
     73 H33        -1.5570    3.7950    2.9690 hn        1 MOL      0.314080
     74 N8         -4.6530    3.5580   -0.9850 n         1 MOL     -0.111860
     75 C23        -4.2040    4.2940   -2.1460 c3        1 MOL     -0.382430
     76 C24        -2.6680    4.4320   -2.2430 c         1 MOL      0.721051
     77 O12        -2.2070    5.1730   -3.1140 o         1 MOL     -0.610363
     78 H34        -4.7000    2.5540   -0.9860 hn        1 MOL      0.292975
     79 H35        -4.5850    5.3160   -2.1960 h1        1 MOL      0.156200
     80 H36        -4.3650    3.7760   -3.0930 h1        1 MOL      0.156200
     81 N9         -1.9080    3.9230   -1.3240 n         1 MOL     -0.582876
     82 C25        -0.4420    4.1400   -1.2230 c3        1 MOL      0.288412
     83 C26         0.4220    2.8820   -0.8780 c         1 MOL      0.490407
     84 O13        -0.0300    2.0630   -0.1160 o         1 MOL     -0.650186
     85 C27        -0.2230    5.3230   -0.2160 c3        1 MOL      0.163418
     86 C28        -0.7730    6.6710   -0.5300 ca        1 MOL     -0.132824
     87 C29        -1.9800    7.0490    0.0940 ca        1 MOL     -0.089702
     88 C30        -0.2890    7.4270   -1.6140 ca        1 MOL     -0.089702
     89 C31        -2.7070    8.1380   -0.4290 ca        1 MOL     -0.291500
     90 C32        -0.9610    8.5340   -2.0860 ca        1 MOL     -0.291500
     91 C33        -2.1670    8.9070   -1.4940 ca        1 MOL      0.384186
     92 O14        -2.8790    9.9560   -2.0000 oh        1 MOL     -0.495135
     93 H37        -2.4060    3.4510   -0.5870 hn        1 MOL      0.388260
     94 H38        -0.0650    4.4650   -2.1830 h1        1 MOL     -0.012223
     95 H39         0.8550    5.4350   -0.1700 hc        1 MOL     -0.043557
     96 H40        -0.5650    5.0640    0.7890 hc        1 MOL     -0.043557
     97 H41        -2.3320    6.4860    0.9370 ha        1 MOL      0.113270
     98 H42         0.5810    7.1520   -2.1930 ha        1 MOL      0.113270
     99 H43        -3.7020    8.3560   -0.0550 ha        1 MOL      0.152766
    100 H44        -0.6650    9.0480   -2.9870 ha        1 MOL      0.152766
    101 H45        -2.4070   10.3180   -2.7470 ho        1 MOL      0.351164
    102 N10         1.6640    2.8890   -1.2740 n         1 MOL     -0.495692
    103 C34         2.6600    1.7690   -1.2330 c3        1 MOL     -0.157678
    104 C35         4.0280    2.4430   -1.0740 c         1 MOL      0.553834
    105 O15         4.3910    3.3620   -1.8290 o         1 MOL     -0.523330
    106 C36         2.5830    0.8870   -2.4870 c3        1 MOL      0.097651
    107 C37         1.2420    0.1700   -2.7330 c3        1 MOL      0.135971
    108 C38         3.7510   -0.1830   -2.5480 c3        1 MOL     -0.304489
    109 C39         1.1720   -0.6200   -4.0400 c3        1 MOL     -0.070931
    110 H46         1.8620    3.7570   -1.7460 hn        1 MOL      0.299414
    111 H47         2.5110    1.1500   -0.3460 h1        1 MOL      0.239139
    112 H48         2.8300    1.5370   -3.3310 hc        1 MOL      0.014041
    113 H49         0.5090    0.9580   -2.8970 hc        1 MOL      0.012537
    114 H50         1.0380   -0.5080   -1.9050 hc        1 MOL      0.012537
    115 H51         3.4410   -1.0800   -2.0060 hc        1 MOL      0.073730
    116 H52         3.8910   -0.3350   -3.6100 hc        1 MOL      0.073730
    117 H53         4.6210    0.2500   -2.0470 hc        1 MOL      0.073730
    118 H54         0.1260   -0.8650   -4.1900 hc        1 MOL      0.004919
    119 H55         1.4780    0.0040   -4.8830 hc        1 MOL      0.004919
    120 H56         1.8120   -1.5020   -4.0590 hc        1 MOL      0.004919
    121 N11         4.7440    1.9340   -0.0830 n         1 MOL     -0.300687
    122 C40         6.1660    2.1770    0.2020 c3        1 MOL      0.021516
    123 C41         7.1630    1.1240   -0.2410 c         1 MOL      0.551346
    124 O16         6.7860    0.0300   -0.7540 o         1 MOL     -0.435886
    125 C42         6.2230    2.3770    1.7520 c3        1 MOL     -0.036028
    126 O17         6.1060    1.1320    2.4640 oh        1 MOL     -0.518654
    127 H57         4.2900    1.2620    0.5180 hn        1 MOL      0.162212
    128 H58         6.4420    3.1590   -0.1930 h1        1 MOL      0.055165
    129 H59         5.4460    3.0640    2.0940 h1        1 MOL      0.089449
    130 H60         7.1560    2.7900    2.1390 h1        1 MOL      0.089449
    131 H61         5.1670    1.0070    2.6340 ho        1 MOL      0.385858
    132 N12         8.4520    1.4600   -0.2060 n         1 MOL     -0.487637
    133 C43         9.5330    0.5120   -0.6460 c3        1 MOL      0.103486
    134 C44         9.5920   -0.8230    0.1490 c         1 MOL      0.492591
    135 O18         9.6130   -1.8820   -0.4580 o         1 MOL     -0.512788
    136 C45        10.9520    1.1980   -0.5540 c3        1 MOL     -0.136222
    137 H62         8.7370    2.3060    0.2620 hn        1 MOL      0.304174
    138 H63         9.4660    0.2740   -1.7090 h1        1 MOL      0.081236
    139 H64        10.9030    2.2680   -0.7670 hc        1 MOL      0.043359
    140 H65        11.2090    1.1110    0.5040 hc        1 MOL      0.043359
    141 H66        11.7640    0.6890   -1.0610 hc        1 MOL      0.043359
    142 N13         9.3290   -0.8100    1.4550 n         1 MOL     -0.418237
    143 C46         9.0150   -2.0630    2.1540 c3        1 MOL      0.154747
    144 C47         7.6220   -2.7380    1.8070 c         1 MOL      0.334265
    145 O19         7.5870   -3.9360    1.5680 o         1 MOL     -0.495089
    146 C48         9.1580   -1.6860    3.6480 c3        1 MOL     -0.232263
    147 H67         9.2640    0.0530    1.9670 hn        1 MOL      0.289267
    148 H68         9.8460   -2.7260    1.8950 h1        1 MOL      0.085633
    149 H69         8.3060   -1.1430    4.0560 hc        1 MOL      0.060182
    150 H70         9.2700   -2.6440    4.1560 hc        1 MOL      0.060182
    151 H71        10.0710   -1.1150    3.7560 hc        1 MOL      0.060182
    152 N14         6.5550   -1.9950    1.4780 n         1 MOL     -0.076290
    153 C49         5.2830   -2.5820    1.0980 c3        1 MOL     -0.050608
    154 C50         5.3660   -3.2290   -0.3480 c         1 MOL      0.403826
    155 O20         4.8410   -4.3400   -0.5570 o         1 MOL     -0.556544
    156 C51         4.1080   -1.5890    1.3310 c3        1 MOL     -0.136646
    157 C52         2.7010   -2.2610    1.1610 c3        1 MOL     -0.091322
    158 C53         1.4690   -1.3320    1.2170 c         1 MOL      0.651274
    159 O21         1.4870   -0.1620    1.6260 o         1 MOL     -0.750962
    160 O22         0.3840   -1.7910    0.8000 o         1 MOL     -0.750962
    161 H72         6.5900   -0.9980    1.6540 hn        1 MOL      0.069575
    162 H73         5.1770   -3.4140    1.7940 h1        1 MOL      0.100508
    163 H74         4.1800   -0.8930    0.5020 hc        1 MOL      0.038502
    164 H75         4.2640   -1.1730    2.3290 hc        1 MOL      0.038502
    165 H76         2.6240   -3.1050    1.8420 hc        1 MOL      0.069299
    166 H77         2.7580   -2.7960    0.2180 hc        1 MOL      0.069299
    167 N15         6.0380   -2.5970   -1.3000 n         1 MOL      0.017406
    168 C54         6.3230   -3.0890   -2.6470 c3        1 MOL     -0.171441
    169 H78         5.6140   -2.6510   -3.3510 h1        1 MOL      0.073247
    170 H79         7.3370   -2.8060   -2.9310 h1        1 MOL      0.073247
    171 H80         6.2290   -4.1750   -2.6660 h1        1 MOL      0.073247
    172 H81         6.5090   -1.7460   -1.0440 hn        1 MOL      0.096054
    173 Ca1        -1.1880    0.1550    1.6830 Ca        1 MOL      1.717442
    174 O23        -0.0700    2.3730    2.8910 oh        1 MOL     -0.744451
    175 H82         0.5690    2.8450    2.3520 ho        1 MOL      0.378110
    176 H83         0.3970    2.1870    3.7010 ho        1 MOL      0.378110
    177 O24        -0.4080   -0.2430    4.4300 oh        1 MOL     -0.744451
    178 H84        -0.7970   -0.4100    5.2820 ho        1 MOL      0.378110
    179 H85         0.5410   -0.2840    4.5780 ho        1 MOL      0.378110
@<TRIPOS>BOND
     1    1    2 1   
     2    1    4 1   
     3    1    5 1   
     4    1    6 1   
     5    2    3 2   
     6    2    7 1   
     7    7    8 1   
     8    7   15 1   
     9    8    9 1   
    10    8   11 1   
    11    8   16 1   
    12    9   10 2   
    13    9   19 1   
    14   11   12 1   
    15   11   17 1   
    16   11   18 1   
    17   12   13 1   
    18   12   14 1   
    19   19   20 1   
    20   19   28 1   
    21   20   21 1   
    22   20   23 1   
    23   20   29 1   
    24   21   22 2   
    25   21   41 1   
    26   23   24 1   
    27   23   30 1   
    28   23   31 1   
    29   24   25 1   
    30   24   32 1   
    31   24   33 1   
    32   25   26 1   
    33   25   34 1   
    34   25   35 1   
    35   26   27 1   
    36   26   36 1   
    37   26   37 1   
    38   27   38 1   
    39   27   39 1   
    40   27   40 1   
    41   41   42 1   
    42   41   49 1   
    43   42   43 1   
    44   42   45 1   
    45   42   50 1   
    46   43   44 2   
    47   43   53 1   
    48   45   46 1   
    49   45   51 1   
    50   45   52 1   
    51   46   47 1   
    52   46   48 1   
    53   53   54 1   
    54   53   57 1   
    55   54   55 1   
    56   54   58 1   
    57   54   59 1   
    58   55   56 2   
    59   55   60 1   
    60   60   61 1   
    61   60   68 1   
    62   61   62 1   
    63   61   64 1   
    64   61   69 1   
    65   62   63 2   
    66   62   74 1   
    67   64   65 1   
    68   64   70 1   
    69   64   71 1   
    70   65   66 1   
    71   65   67 2   
    72   66   72 1   
    73   66   73 1   
    74   74   75 1   
    75   74   78 1   
    76   75   76 1   
    77   75   79 1   
    78   75   80 1   
    79   76   77 2   
    80   76   81 1   
    81   81   82 1   
    82   81   93 1   
    83   82   83 1   
    84   82   85 1   
    85   82   94 1   
    86   83   84 2   
    87   83  102 1   
    88   85   86 1   
    89   85   95 1   
    90   85   96 1   
    91   86   87 ar  
    92   86   88 ar  
    93   87   89 ar  
    94   87   97 1   
    95   88   90 ar  
    96   88   98 1   
    97   89   91 ar  
    98   89   99 1   
    99   90   91 ar  
   100   90  100 1   
   101   91   92 1   
   102   92  101 1   
   103  102  103 1   
   104  102  110 1   
   105  103  104 1   
   106  103  106 1   
   107  103  111 1   
   108  104  105 2   
   109  104  121 1   
   110  106  107 1   
   111  106  108 1   
   112  106  112 1   
   113  107  109 1   
   114  107  113 1   
   115  107  114 1   
   116  108  115 1   
   117  108  116 1   
   118  108  117 1   
   119  109  118 1   
   120  109  119 1   
   121  109  120 1   
   122  121  122 1   
   123  121  127 1   
   124  122  123 1   
   125  122  125 1   
   126  122  128 1   
   127  123  124 2   
   128  123  132 1   
   129  125  126 1   
   130  125  129 1   
   131  125  130 1   
   132  126  131 1   
   133  132  133 1   
   134  132  137 1   
   135  133  134 1   
   136  133  136 1   
   137  133  138 1   
   138  134  135 2   
   139  134  142 1   
   140  136  139 1   
   141  136  140 1   
   142  136  141 1   
   143  142  143 1   
   144  142  147 1   
   145  143  144 1   
   146  143  146 1   
   147  143  148 1   
   148  144  145 2   
   149  144  152 1   
   150  146  149 1   
   151  146  150 1   
   152  146  151 1   
   153  152  153 1   
   154  152  161 1   
   155  153  154 1   
   156  153  156 1   
   157  153  162 1   
   158  154  155 2   
   159  154  167 1   
   160  156  157 1   
   161  156  163 1   
   162  156  164 1   
   163  157  158 1   
   164  157  165 1   
   165  157  166 1   
   166  158  159 1   
   167  158  160 1   
   168  167  168 1   
   169  167  172 1   
   170  168  169 1   
   171  168  170 1   
   172  168  171 1   
   173  174  175 1   
   174  174  176 1   
   175  177  178 1   
   176  177  179 1   
@<TRIPOS>SUBSTRUCTURE
     1 MOL         1 TEMP              0 ****  ****    0 ROOT
