@<TRIPOS>MOLECULE
MOL
  179   176     1     0     0
SMALL
resp


@<TRIPOS>ATOM
      1 C1          0.3020    5.9480    5.0570 c3        1 MOL     -0.487575
      2 C2          0.0740    5.2270    3.7080 c         1 MOL      0.723097
      3 O1          0.7960    5.5120    2.7470 o         1 MOL     -0.635770
      4 H1         -0.1780    6.9260    5.0310 hc        1 MOL      0.127782
      5 H2         -0.1290    5.3540    5.8640 hc        1 MOL      0.127782
      6 H3          1.3710    6.0710    5.2270 hc        1 MOL      0.127782
      7 N1         -0.8730    4.3030    3.5800 n         1 MOL     -0.590667
      8 C3         -1.1600    3.6380    2.2790 c3        1 MOL      0.308642
      9 C4         -1.6870    4.6570    1.2750 c         1 MOL      0.414360
     10 O2         -2.8590    4.9820    1.4630 o         1 MOL     -0.487907
     11 C5         -2.0010    2.3070    2.4190 c3        1 MOL     -0.323771
     12 C6         -2.1560    1.6340    1.0170 c         1 MOL      0.822968
     13 O3         -1.4650    2.0690    0.0690 o         1 MOL     -0.724821
     14 O4         -2.8530    0.6450    0.7720 o         1 MOL     -0.724821
     15 H4         -1.4310    4.0240    4.3860 hn        1 MOL      0.318846
     16 H5         -0.1940    3.3540    1.8650 h1        1 MOL      0.029277
     17 H6         -2.9900    2.4720    2.8540 hc        1 MOL      0.091304
     18 H7         -1.3470    1.6700    2.9960 hc        1 MOL      0.091304
     19 N2         -0.8500    5.1620    0.2740 n         1 MOL     -0.277593
     20 C7         -1.0880    6.2570   -0.6330 c3        1 MOL      0.004790
     21 C8         -1.8840    5.9060   -1.9480 c         1 MOL      0.465110
     22 O5         -2.0880    6.7200   -2.8160 o         1 MOL     -0.543846
     23 C9          0.2690    6.9700   -1.0610 c3        1 MOL     -0.265263
     24 C10         1.1720    7.4130    0.1060 c3        1 MOL      0.234460
     25 C11         2.0590    8.6090   -0.0330 c3        1 MOL     -0.334945
     26 C12         2.8660    8.9430    1.2950 c3        1 MOL      0.187551
     27 N3          3.4010   10.3580    1.2360 n4        1 MOL     -0.428343
     28 H8          0.1020    4.8210    0.2130 hn        1 MOL      0.271406
     29 H9         -1.7060    6.9360   -0.0440 h1        1 MOL      0.083543
     30 H10        -0.1470    7.8920   -1.4790 hc        1 MOL      0.092941
     31 H11         0.8420    6.4310   -1.8030 hc        1 MOL      0.092941
     32 H12         1.6840    6.5220    0.4830 hc        1 MOL      0.012371
     33 H13         0.5590    7.6460    0.9750 hc        1 MOL      0.012371
     34 H14         1.4480    9.4190   -0.4290 hc        1 MOL      0.088441
     35 H15         2.7820    8.2960   -0.7940 hc        1 MOL      0.088441
     36 H16         3.7000    8.2330    1.3980 hx        1 MOL      0.067280
     37 H17         2.2290    8.7220    2.1530 hx        1 MOL      0.067280
     38 H18         3.9040   10.3940    0.3580 hn        1 MOL      0.341517
     39 H19         2.7080   11.0880    1.3220 hn        1 MOL      0.341517
     40 H20         4.0460   10.5400    1.9840 hn        1 MOL      0.341517
     41 N4         -2.5040    4.7420   -1.9180 n         1 MOL     -0.199956
     42 C13        -3.6930    4.3920   -2.7440 c3        1 MOL      0.063424
     43 C14        -4.8790    3.9040   -1.9090 c         1 MOL      0.388476
     44 O6         -5.9930    4.0080   -2.3600 o         1 MOL     -0.525047
     45 C15        -3.2690    3.2870   -3.7460 c3        1 MOL     -0.208467
     46 C16        -2.6540    2.1060   -3.0300 c         1 MOL      0.620583
     47 O7         -3.3240    1.1990   -2.4830 o         1 MOL     -0.683558
     48 O8         -1.4530    1.9720   -2.9100 o         1 MOL     -0.683558
     49 H21        -2.2000    4.0580   -1.2410 hn        1 MOL      0.227900
     50 H22        -4.0000    5.2660   -3.3200 h1        1 MOL      0.092629
     51 H23        -2.4710    3.6410   -4.3910 hc        1 MOL      0.073183
     52 H24        -4.1290    3.0260   -4.3690 hc        1 MOL      0.073183
     53 N5         -4.5720    3.4380   -0.7030 n         1 MOL      0.184706
     54 C17        -5.5120    3.1940    0.3330 c3        1 MOL     -0.283302
     55 C18        -6.2510    1.8310    0.0660 c         1 MOL      0.441558
     56 O9         -7.2990    1.6860    0.6870 o         1 MOL     -0.577576
     57 H25        -3.5980    3.4660   -0.4260 hn        1 MOL     -0.295987
     58 H26        -6.2660    3.9770    0.2550 h1        1 MOL      0.153914
     59 H27        -4.9980    3.1390    1.3010 h1        1 MOL      0.153914
     60 N6         -5.7070    0.8400   -0.6120 n         1 MOL     -0.075805
     61 C19        -6.4230   -0.5220   -0.8100 c3        1 MOL      0.002862
     62 C20        -6.4020   -1.5600    0.4250 c         1 MOL      0.318203
     63 O10        -7.0420   -2.6200    0.3830 o         1 MOL     -0.444479
     64 C21        -6.1670   -1.2200   -2.1410 c3        1 MOL     -0.168152
     65 C22        -4.8810   -2.0760   -2.0880 c         1 MOL      0.517601
     66 N7         -4.7110   -3.0270   -3.0210 n         1 MOL     -0.566473
     67 O11        -3.9740   -1.8860   -1.2590 o         1 MOL     -0.611357
     68 H28        -4.8350    1.0050   -1.0950 hn        1 MOL      0.062012
     69 H29        -7.4820   -0.2660   -0.9130 h1        1 MOL      0.114037
     70 H30        -6.2420   -0.4480   -2.9160 hc        1 MOL      0.078554
     71 H31        -7.0000   -1.8980   -2.3270 hc        1 MOL      0.078554
     72 H32        -5.4490   -3.0240   -3.7110 hn        1 MOL      0.313748
     73 H33        -3.8100   -3.4690   -3.1030 hn        1 MOL      0.313748
     74 N8         -5.7020   -1.2170    1.5160 n         1 MOL     -0.161053
     75 C23        -5.5260   -2.0490    2.6640 c3        1 MOL     -0.239363
     76 C24        -4.3740   -3.0650    2.6460 c         1 MOL      0.580326
     77 O12        -4.2440   -3.7510    3.6280 o         1 MOL     -0.575855
     78 H34        -5.1520   -0.3820    1.4130 hn        1 MOL      0.225542
     79 H35        -6.4760   -2.5910    2.6830 h1        1 MOL      0.123956
     80 H36        -5.5170   -1.5280    3.6200 h1        1 MOL      0.123956
     81 N9         -3.5030   -3.0400    1.6190 n         1 MOL     -0.146814
     82 C25        -2.2880   -3.8540    1.4060 c3        1 MOL      0.167984
     83 C26        -1.0070   -2.9890    1.3310 c         1 MOL      0.355568
     84 O13        -1.0180   -1.9920    0.5680 o         1 MOL     -0.570452
     85 C27        -2.4780   -4.7720    0.1960 c3        1 MOL      0.025544
     86 C28        -3.6300   -5.7390    0.2760 ca        1 MOL     -0.140230
     87 C29        -4.8410   -5.4790   -0.3430 ca        1 MOL     -0.071654
     88 C30        -3.5110   -6.8060    1.2420 ca        1 MOL     -0.071654
     89 C31        -5.9210   -6.4040   -0.2700 ca        1 MOL     -0.264795
     90 C32        -4.6300   -7.7210    1.3200 ca        1 MOL     -0.264795
     91 C33        -5.7900   -7.5500    0.5160 ca        1 MOL      0.316829
     92 O14        -6.9250   -8.3530    0.6470 oh        1 MOL     -0.479150
     93 H37        -3.6050   -2.3150    0.9280 hn        1 MOL      0.077140
     94 H38        -2.1290   -4.3860    2.3430 h1        1 MOL      0.004910
     95 H39        -1.5190   -5.2600   -0.0020 hc        1 MOL      0.034114
     96 H40        -2.6360   -4.1120   -0.6650 hc        1 MOL      0.034114
     97 H41        -5.0160   -4.6210   -0.9740 ha        1 MOL      0.109936
     98 H42        -2.6110   -6.9810    1.8130 ha        1 MOL      0.109936
     99 H43        -6.7550   -6.2040   -0.9270 ha        1 MOL      0.148001
    100 H44        -4.5930   -8.4160    2.1420 ha        1 MOL      0.148001
    101 H45        -6.8030   -8.9750    1.3640 ho        1 MOL      0.353137
    102 N10         0.1270   -3.4000    1.9060 n         1 MOL     -0.393338
    103 C34         1.4720   -2.8590    1.6640 c3        1 MOL      0.030286
    104 C35         2.4840   -3.9560    1.2630 c         1 MOL      0.525639
    105 O15         2.7030   -5.0490    1.8100 o         1 MOL     -0.538395
    106 C36         1.8890   -2.0230    2.9050 c3        1 MOL      0.016746
    107 C37         1.2810   -0.5540    2.8350 c3        1 MOL      0.219497
    108 C38         3.4420   -1.9390    3.0000 c3        1 MOL     -0.125134
    109 C39         1.3740    0.1700    4.1700 c3        1 MOL     -0.346225
    110 H46         0.1280   -4.2390    2.4720 hn        1 MOL      0.285356
    111 H47         1.5120   -2.1710    0.8170 h1        1 MOL      0.040521
    112 H48         1.4940   -2.4690    3.8050 hc        1 MOL      0.031371
    113 H49         0.2470   -0.4990    2.4910 hc        1 MOL     -0.021917
    114 H50         1.8400    0.0530    2.1070 hc        1 MOL     -0.021917
    115 H51         3.7690   -1.1780    3.7050 hc        1 MOL      0.014635
    116 H52         3.8910   -2.8980    3.2300 hc        1 MOL      0.014635
    117 H53         3.8440   -1.5810    2.0520 hc        1 MOL      0.014635
    118 H54         0.6280   -0.2690    4.8420 hc        1 MOL      0.074936
    119 H55         2.3900    0.0490    4.5390 hc        1 MOL      0.074936
    120 H56         1.2050    1.2320    3.9870 hc        1 MOL      0.074936
    121 N11         3.1540   -3.6220    0.1270 n         1 MOL     -0.353608
    122 C40         4.2420   -4.3220   -0.4490 c3        1 MOL      0.086228
    123 C41         5.6070   -3.6490   -0.1060 c         1 MOL      0.298603
    124 O16         5.6290   -2.4560    0.1860 o         1 MOL     -0.231106
    125 C42         4.0520   -4.3840   -1.9730 c3        1 MOL     -0.071914
    126 O17         4.2430   -3.0870   -2.4570 oh        1 MOL     -0.565826
    127 H57         3.1090   -2.6450   -0.1310 hn        1 MOL      0.294034
    128 H58         4.3100   -5.3330   -0.0670 h1        1 MOL      0.036918
    129 H59         3.0360   -4.7590   -2.1200 h1        1 MOL      0.084113
    130 H60         4.8020   -5.0790   -2.3500 h1        1 MOL      0.084113
    131 H61         3.3610   -2.7080   -2.4120 ho        1 MOL      0.410734
    132 N12         6.7520   -4.3250   -0.2410 n         1 MOL     -0.351828
    133 C43         8.1150   -3.8070    0.0770 c3        1 MOL      0.016164
    134 C44         8.3570   -2.4100   -0.4280 c         1 MOL      0.540991
    135 O18         8.9200   -1.5220    0.3050 o         1 MOL     -0.537461
    136 C45         9.1150   -4.8130   -0.4040 c3        1 MOL     -0.205901
    137 H62         6.6560   -5.2590   -0.6090 hn        1 MOL      0.268402
    138 H63         8.0260   -3.7380    1.1660 h1        1 MOL      0.090006
    139 H64         9.0730   -5.8320   -0.0070 hc        1 MOL      0.069802
    140 H65         9.0700   -4.7040   -1.4880 hc        1 MOL      0.069802
    141 H66        10.0600   -4.3440   -0.1210 hc        1 MOL      0.069802
    142 N13         7.9210   -2.1850   -1.6590 n         1 MOL     -0.410084
    143 C46         8.1570   -0.8780   -2.3810 c3        1 MOL      0.059623
    144 C47         7.4240    0.2170   -1.5990 c         1 MOL      0.357228
    145 O19         7.9640    1.2660   -1.2860 o         1 MOL     -0.480626
    146 C48         7.7380   -1.0820   -3.8440 c3        1 MOL     -0.202945
    147 H67         7.4210   -2.8960   -2.1630 hn        1 MOL      0.312631
    148 H68         9.2280   -0.6690   -2.3310 h1        1 MOL      0.089539
    149 H69         8.1930   -0.2710   -4.4220 hc        1 MOL      0.060792
    150 H70         8.0960   -2.0030   -4.2910 hc        1 MOL      0.060792
    151 H71         6.6480   -1.0650   -3.9400 hc        1 MOL      0.060792
    152 N14         6.1500    0.0230   -1.2890 n         1 MOL     -0.111745
    153 C49         5.4290    1.0610   -0.5880 c3        1 MOL     -0.099435
    154 C50         6.1240    1.1310    0.8050 c         1 MOL      0.304466
    155 O20         6.4210    2.2220    1.3270 o         1 MOL     -0.539915
    156 C51         3.9700    0.6280   -0.4310 c3        1 MOL     -0.034536
    157 C52         3.1880    0.6430   -1.7150 c3        1 MOL     -0.146832
    158 C53         1.9730   -0.3400   -1.5850 c         1 MOL      0.717931
    159 O21         0.9180    0.1530   -1.1010 o         1 MOL     -0.731612
    160 O22         2.1450   -1.5160   -1.9330 o         1 MOL     -0.731612
    161 H72         5.6260   -0.8260   -1.4660 hn        1 MOL      0.172584
    162 H73         5.5190    1.9780   -1.1770 h1        1 MOL      0.111375
    163 H74         3.4760    1.3740    0.1970 hc        1 MOL      0.060043
    164 H75         3.8750   -0.3450    0.0470 hc        1 MOL      0.060043
    165 H76         3.8500    0.4520   -2.5550 hc        1 MOL      0.033880
    166 H77         2.8650    1.6680   -1.9400 hc        1 MOL      0.033880
    167 N15         6.4970   -0.0170    1.3680 n         1 MOL      0.179528
    168 C54         6.9380   -0.1310    2.7560 c3        1 MOL     -0.354149
    169 H78         7.4240   -1.0950    2.9040 h1        1 MOL      0.113547
    170 H79         7.6420    0.6700    2.9800 h1        1 MOL      0.113547
    171 H80         6.0760   -0.0530    3.4190 h1        1 MOL      0.113547
    172 H81         6.3860   -0.8930    0.8560 hn        1 MOL     -0.034654
    173 Ca1        -1.6100   -0.3450   -1.4350 Ca        1 MOL      1.800955
    174 O23        -0.3120   -2.6020   -2.4390 oh        1 MOL     -0.810068
    175 H82        -0.0150   -3.5040   -2.3220 ho        1 MOL      0.388685
    176 H83         0.4770   -2.1100   -2.6440 ho        1 MOL      0.388685
    177 O24        -2.4290   -0.8640   -3.8160 oh        1 MOL     -0.810068
    178 H84        -2.8190   -1.4420   -4.4700 ho        1 MOL      0.388685
    179 H85        -3.0010   -0.0910   -3.8010 ho        1 MOL      0.388685
@<TRIPOS>BOND
     1    1    2 1   
     2    1    4 1   
     3    1    5 1   
     4    1    6 1   
     5    2    3 2   
     6    2    7 1   
     7    7    8 1   
     8    7   15 1   
     9    8    9 1   
    10    8   11 1   
    11    8   16 1   
    12    9   10 2   
    13    9   19 1   
    14   11   12 1   
    15   11   17 1   
    16   11   18 1   
    17   12   13 1   
    18   12   14 1   
    19   19   20 1   
    20   19   28 1   
    21   20   21 1   
    22   20   23 1   
    23   20   29 1   
    24   21   22 2   
    25   21   41 1   
    26   23   24 1   
    27   23   30 1   
    28   23   31 1   
    29   24   25 1   
    30   24   32 1   
    31   24   33 1   
    32   25   26 1   
    33   25   34 1   
    34   25   35 1   
    35   26   27 1   
    36   26   36 1   
    37   26   37 1   
    38   27   38 1   
    39   27   39 1   
    40   27   40 1   
    41   41   42 1   
    42   41   49 1   
    43   42   43 1   
    44   42   45 1   
    45   42   50 1   
    46   43   44 2   
    47   43   53 1   
    48   45   46 1   
    49   45   51 1   
    50   45   52 1   
    51   46   47 1   
    52   46   48 1   
    53   53   54 1   
    54   53   57 1   
    55   54   55 1   
    56   54   58 1   
    57   54   59 1   
    58   55   56 2   
    59   55   60 1   
    60   60   61 1   
    61   60   68 1   
    62   61   62 1   
    63   61   64 1   
    64   61   69 1   
    65   62   63 2   
    66   62   74 1   
    67   64   65 1   
    68   64   70 1   
    69   64   71 1   
    70   65   66 1   
    71   65   67 2   
    72   66   72 1   
    73   66   73 1   
    74   74   75 1   
    75   74   78 1   
    76   75   76 1   
    77   75   79 1   
    78   75   80 1   
    79   76   77 2   
    80   76   81 1   
    81   81   82 1   
    82   81   93 1   
    83   82   83 1   
    84   82   85 1   
    85   82   94 1   
    86   83   84 2   
    87   83  102 1   
    88   85   86 1   
    89   85   95 1   
    90   85   96 1   
    91   86   87 ar  
    92   86   88 ar  
    93   87   89 ar  
    94   87   97 1   
    95   88   90 ar  
    96   88   98 1   
    97   89   91 ar  
    98   89   99 1   
    99   90   91 ar  
   100   90  100 1   
   101   91   92 1   
   102   92  101 1   
   103  102  103 1   
   104  102  110 1   
   105  103  104 1   
   106  103  106 1   
   107  103  111 1   
   108  104  105 2   
   109  104  121 1   
   110  106  107 1   
   111  106  108 1   
   112  106  112 1   
   113  107  109 1   
   114  107  113 1   
   115  107  114 1   
   116  108  115 1   
   117  108  116 1   
   118  108  117 1   
   119  109  118 1   
   120  109  119 1   
   121  109  120 1   
   122  121  122 1   
   123  121  127 1   
   124  122  123 1   
   125  122  125 1   
   126  122  128 1   
   127  123  124 2   
   128  123  132 1   
   129  125  126 1   
   130  125  129 1   
   131  125  130 1   
   132  126  131 1   
   133  132  133 1   
   134  132  137 1   
   135  133  134 1   
   136  133  136 1   
   137  133  138 1   
   138  134  135 2   
   139  134  142 1   
   140  136  139 1   
   141  136  140 1   
   142  136  141 1   
   143  142  143 1   
   144  142  147 1   
   145  143  144 1   
   146  143  146 1   
   147  143  148 1   
   148  144  145 2   
   149  144  152 1   
   150  146  149 1   
   151  146  150 1   
   152  146  151 1   
   153  152  153 1   
   154  152  161 1   
   155  153  154 1   
   156  153  156 1   
   157  153  162 1   
   158  154  155 2   
   159  154  167 1   
   160  156  157 1   
   161  156  163 1   
   162  156  164 1   
   163  157  158 1   
   164  157  165 1   
   165  157  166 1   
   166  158  159 1   
   167  158  160 1   
   168  167  168 1   
   169  167  172 1   
   170  168  169 1   
   171  168  170 1   
   172  168  171 1   
   173  174  175 1   
   174  174  176 1   
   175  177  178 1   
   176  177  179 1   
@<TRIPOS>SUBSTRUCTURE
     1 MOL         1 TEMP              0 ****  ****    0 ROOT
