@<TRIPOS>MOLECULE
MOL
  183   181     1     0     0
SMALL
resp


@<TRIPOS>ATOM
      1 C1         -0.2730    1.9230    6.1940 c3        1 MOL     -0.384750
      2 C2         -0.6920    1.9470    4.7170 c         1 MOL      0.733551
      3 O1          0.1860    2.2900    3.8760 o         1 MOL     -0.572181
      4 H1          0.4520    1.1250    6.3520 hc        1 MOL      0.092717
      5 H2          0.1770    2.8800    6.4600 hc        1 MOL      0.092717
      6 H3         -1.1480    1.7470    6.8180 hc        1 MOL      0.092717
      7 N1         -1.9590    1.4410    4.3780 n         1 MOL     -0.691045
      8 C3         -2.4710    1.4340    2.9610 c3        1 MOL      0.196733
      9 C4         -2.9730    2.8270    2.6350 c         1 MOL      0.571227
     10 O2         -3.5670    3.5500    3.5070 o         1 MOL     -0.593622
     11 C5         -3.5800    0.3540    2.8560 c3        1 MOL     -0.234185
     12 C6         -4.4030    0.1890    1.6200 c         1 MOL      0.726833
     13 O3         -5.5480   -0.2400    1.7190 o         1 MOL     -0.643438
     14 O4         -3.9640    0.6530    0.5410 o         1 MOL     -0.643438
     15 H4         -2.4020    0.9140    5.1120 hn        1 MOL      0.347462
     16 H5         -1.7500    1.1980    2.1810 h1        1 MOL      0.042591
     17 H6         -4.2180    0.3990    3.7390 hc        1 MOL      0.047774
     18 H7         -3.1200   -0.6220    2.9740 hc        1 MOL      0.047774
     19 N2         -2.7270    3.2800    1.3980 n         1 MOL     -0.473609
     20 C7         -2.9660    4.7280    0.9890 c3        1 MOL     -0.036477
     21 C8         -4.2390    4.6270    0.1100 c         1 MOL      0.546253
     22 O5         -5.0530    5.5080    0.1030 o         1 MOL     -0.586862
     23 C9         -1.7650    5.2920    0.2720 c3        1 MOL      0.534247
     24 C10        -0.5320    5.1290    1.1180 c3        1 MOL      0.028764
     25 C11        -2.0200    6.7530   -0.0240 c3        1 MOL     -0.480934
     26 C12         0.7280    5.7970    0.5780 c3        1 MOL     -0.337748
     27 H8         -2.1810    2.7720    0.7150 hn        1 MOL      0.255750
     28 H9         -3.1270    5.4240    1.8090 h1        1 MOL      0.056594
     29 H10        -1.6390    4.7600   -0.6770 hc        1 MOL     -0.086496
     30 H11        -0.3350    4.0670    1.2760 hc        1 MOL     -0.009678
     31 H12        -0.9250    5.6080    2.0150 hc        1 MOL     -0.009678
     32 H13        -1.6380    7.4180    0.7480 hc        1 MOL      0.086400
     33 H14        -1.3690    6.9140   -0.8840 hc        1 MOL      0.086400
     34 H15        -3.0840    6.9870   -0.0790 hc        1 MOL      0.086400
     35 H16         1.5470    5.5820    1.2580 hc        1 MOL      0.077734
     36 H17         0.8820    5.2020   -0.3130 hc        1 MOL      0.077734
     37 H18         0.6490    6.8850    0.4620 hc        1 MOL      0.077734
     38 N3         -4.4440    3.5720   -0.7330 n         1 MOL     -0.356368
     39 C13        -5.4270    3.5700   -1.8430 c3        1 MOL      0.003651
     40 C14        -6.6150    2.5400   -1.6660 c         1 MOL      0.450855
     41 O6         -7.4940    2.4690   -2.5030 o         1 MOL     -0.511728
     42 C15        -4.7390    3.5060   -3.2670 c3        1 MOL     -0.000517
     43 C16        -3.8450    2.2600   -3.4750 c         1 MOL      0.691248
     44 O7         -3.5940    1.9930   -4.7300 o         1 MOL     -0.711173
     45 O8         -3.4730    1.6030   -2.5020 o         1 MOL     -0.711173
     46 H19        -3.7500    2.8410   -0.7970 hn        1 MOL      0.208733
     47 H20        -5.9040    4.5530   -1.8560 h1        1 MOL      0.074021
     48 H21        -4.0140    4.3250   -3.2900 hc        1 MOL     -0.014586
     49 H22        -5.4250    3.6880   -4.0970 hc        1 MOL     -0.014586
     50 N4         -6.6480    1.9200   -0.4310 n         1 MOL     -0.233127
     51 C17        -7.8630    1.4230    0.0870 c3        1 MOL     -0.214969
     52 C18        -8.2130    0.0320   -0.4120 c         1 MOL      0.541702
     53 O9         -9.3790   -0.2080   -0.5740 o         1 MOL     -0.596783
     54 H23        -5.8450    1.9570    0.1740 hn        1 MOL      0.253116
     55 H24        -8.7250    1.9940   -0.2720 h1        1 MOL      0.092682
     56 H25        -7.8610    1.3830    1.1840 h1        1 MOL      0.092682
     57 N5         -7.2080   -0.8000   -0.7560 n         1 MOL     -0.128078
     58 C19        -7.3420   -2.1120   -1.2790 c3        1 MOL      0.014326
     59 C20        -7.2500   -3.2490   -0.2220 c         1 MOL      0.407762
     60 O10        -7.5500   -4.4140   -0.5510 o         1 MOL     -0.565172
     61 C21        -6.3640   -2.2580   -2.4220 c3        1 MOL     -0.174486
     62 C22        -4.9330   -1.9630   -1.9960 c         1 MOL      0.719393
     63 O11        -4.0340   -1.6100   -2.8360 o         1 MOL     -0.758974
     64 O12        -4.6310   -1.8190   -0.7930 o         1 MOL     -0.758974
     65 H26        -6.3180   -0.5840   -0.3230 hn        1 MOL      0.052819
     66 H27        -8.3600   -2.1380   -1.6700 h1        1 MOL      0.065187
     67 H28        -6.6540   -1.5330   -3.1910 hc        1 MOL      0.058191
     68 H29        -6.4520   -3.2460   -2.8710 hc        1 MOL      0.058191
     69 N6         -6.7430   -2.9330    0.9620 n         1 MOL     -0.213598
     70 C23        -6.4690   -3.8020    2.1230 c3        1 MOL     -0.174324
     71 C24        -5.0090   -4.2480    2.3160 c         1 MOL      0.550842
     72 O13        -4.6730   -5.0260    3.1990 o         1 MOL     -0.607223
     73 H30        -6.2160   -2.0680    0.9990 hn        1 MOL      0.188150
     74 H31        -7.1290   -4.6560    2.0140 h1        1 MOL      0.090288
     75 H32        -6.7320   -3.1540    2.9670 h1        1 MOL      0.090288
     76 N7         -4.1250   -3.8540    1.4170 n         1 MOL     -0.230577
     77 C25        -2.7240   -4.3620    1.3850 c3        1 MOL      0.063312
     78 C26        -1.8020   -3.1950    1.3540 c         1 MOL      0.698960
     79 O14        -2.1750   -2.0670    1.1140 o         1 MOL     -0.796888
     80 C27        -2.4770   -5.4040    0.2520 c3        1 MOL     -0.262049
     81 C28        -2.7300   -4.9130   -1.1790 c3        1 MOL     -0.088465
     82 C29        -1.6420   -4.0910   -1.7560 c         1 MOL      0.445224
     83 N8         -0.7190   -4.7780   -2.4030 n         1 MOL     -0.669786
     84 O15        -1.5570   -2.8810   -1.8130 o         1 MOL     -0.434277
     85 H33        -4.3360   -3.1590    0.7080 hn        1 MOL      0.314776
     86 H34        -2.4790   -4.9400    2.2670 h1        1 MOL      0.045033
     87 H35        -3.2080   -6.1960    0.4540 hc        1 MOL      0.083951
     88 H36        -1.4300   -5.6620    0.3710 hc        1 MOL      0.083951
     89 H37        -3.7390   -4.5130   -1.3210 hc        1 MOL      0.067721
     90 H38        -2.7260   -5.8250   -1.7660 hc        1 MOL      0.067721
     91 H39        -0.7930   -5.7830   -2.4810 hn        1 MOL      0.328318
     92 H40        -0.1100   -4.2830   -3.0430 hn        1 MOL      0.328318
     93 N9         -0.5050   -3.5100    1.5280 n         1 MOL     -0.500807
     94 C30         0.5250   -2.4600    1.7040 c3        1 MOL     -0.001119
     95 C31         1.8100   -2.7610    0.9250 c         1 MOL      0.437680
     96 O16         2.5860   -3.6640    1.3060 o         1 MOL     -0.565932
     97 C32         0.9960   -2.3420    3.1680 c3        1 MOL      0.191824
     98 C33         2.0510   -1.2200    3.4100 c3        1 MOL     -0.309363
     99 C34        -0.2640   -1.9780    3.9810 c3        1 MOL     -0.309363
    100 H41        -0.2080   -4.4260    1.8460 hn        1 MOL      0.292637
    101 H42         0.1430   -1.4830    1.4070 h1        1 MOL      0.234363
    102 H43         1.4520   -3.2850    3.4720 hc        1 MOL     -0.013213
    103 H44         2.0980   -0.9650    4.4740 hc        1 MOL      0.068022
    104 H45         3.0060   -1.5570    3.0180 hc        1 MOL      0.068022
    105 H46         1.8030   -0.3120    2.8620 hc        1 MOL      0.068022
    106 H47        -1.0180   -2.7560    3.9360 hc        1 MOL      0.068022
    107 H48         0.0160   -1.9670    5.0360 hc        1 MOL      0.068022
    108 H49        -0.6460   -1.0550    3.5430 hc        1 MOL      0.068022
    109 N10         2.0760   -2.0540   -0.1590 n         1 MOL     -0.187831
    110 C35         3.3110   -2.1340   -0.9660 c3        1 MOL      0.022191
    111 C36         4.5270   -1.8340   -0.1750 c         1 MOL      0.281371
    112 O17         4.4430   -0.9130    0.6760 o         1 MOL     -0.149982
    113 C37         3.0900   -1.2900   -2.2910 c3        1 MOL     -0.122715
    114 C38         2.0210   -1.9320   -3.1600 c         1 MOL      0.694073
    115 N11         0.7970   -1.7480   -2.7100 n         1 MOL     -0.842684
    116 O18         2.3540   -2.7260   -4.0430 o         1 MOL     -0.606091
    117 H50         1.4700   -1.3050   -0.4490 hn        1 MOL      0.048041
    118 H51         3.4530   -3.1570   -1.3190 h1        1 MOL      0.055478
    119 H52         4.0570   -1.3610   -2.7900 hc        1 MOL      0.042559
    120 H53         2.8200   -0.2550   -2.1170 hc        1 MOL      0.042559
    121 H54         0.5720   -1.1450   -1.9290 hn        1 MOL      0.402341
    122 H55         0.0690   -2.2040   -3.2310 hn        1 MOL      0.402341
    123 N12         5.7140   -2.3600   -0.5540 n         1 MOL     -0.410811
    124 C39         6.9200   -1.9390    0.0710 c3        1 MOL      0.092764
    125 C40         7.0920   -0.3960   -0.0080 c         1 MOL      0.752506
    126 O19         7.3970    0.2600    1.0010 o         1 MOL     -0.537092
    127 C41         8.0880   -2.7210   -0.5530 c3        1 MOL     -0.043235
    128 C42         9.4370   -2.0220   -0.2100 ca        1 MOL     -0.039886
    129 C43         9.9480   -2.1620    1.1170 ca        1 MOL     -0.180399
    130 C44        10.1140   -1.2120   -1.1450 ca        1 MOL     -0.180399
    131 C45        11.0600   -1.4830    1.5070 ca        1 MOL     -0.250189
    132 C46        11.2370   -0.4550   -0.6910 ca        1 MOL     -0.250189
    133 C47        11.7350   -0.6320    0.6440 ca        1 MOL      0.362182
    134 O20        12.8620    0.0060    0.9720 oh        1 MOL     -0.496003
    135 H56         5.7800   -3.0140   -1.3210 hn        1 MOL      0.296529
    136 H57         6.9330   -2.1800    1.1220 h1        1 MOL      0.045932
    137 H58         7.9890   -2.6270   -1.6330 hc        1 MOL      0.025936
    138 H59         8.0250   -3.7840   -0.3460 hc        1 MOL      0.025936
    139 H60         9.5600   -2.9510    1.7550 ha        1 MOL      0.149522
    140 H61         9.7440   -1.1650   -2.1620 ha        1 MOL      0.149522
    141 H62        11.4770   -1.6370    2.4960 ha        1 MOL      0.144485
    142 H63        11.7200    0.2340   -1.3720 ha        1 MOL      0.144485
    143 H64        13.1470    0.4750    0.1900 ho        1 MOL      0.355780
    144 N13         6.5790    0.1720   -1.1120 n         1 MOL     -0.562677
    145 C48         6.5040    1.6240   -1.3230 c3        1 MOL      0.096716
    146 C49         5.6250    2.4650   -0.4570 c         1 MOL      0.433727
    147 O21         5.8410    3.6550   -0.2090 o         1 MOL     -0.533006
    148 C50         6.4250    1.8140   -2.8610 c3        1 MOL     -0.169205
    149 C51         5.0780    1.6190   -3.4960 c3        1 MOL     -0.115112
    150 C52         5.1470    1.7670   -4.9930 c         1 MOL      0.689092
    151 O22         4.8410    2.9030   -5.4680 o         1 MOL     -0.732819
    152 O23         5.3010    0.7420   -5.6530 o         1 MOL     -0.732819
    153 H65         6.3610   -0.3560   -1.9450 hn        1 MOL      0.312026
    154 H66         7.4900    1.9940   -1.0160 h1        1 MOL      0.024755
    155 H67         7.2050    1.2150   -3.3350 hc        1 MOL      0.047946
    156 H68         6.6940    2.8530   -3.0690 hc        1 MOL      0.047946
    157 H69         4.4700    2.4570   -3.1440 hc        1 MOL      0.046714
    158 H70         4.6470    0.6890   -3.1290 hc        1 MOL      0.046714
    159 N14         4.5500    1.8060    0.0320 n         1 MOL     -0.041773
    160 C53         3.6470    2.3660    1.0600 c3        1 MOL     -0.053671
    161 C54         4.1820    2.1760    2.4640 c         1 MOL      0.383017
    162 O24         3.9600    3.0200    3.3190 o         1 MOL     -0.558657
    163 C55         2.2850    1.6710    0.9550 c3        1 MOL      0.098493
    164 C56         1.4030    2.0300   -0.2170 c3        1 MOL     -0.009417
    165 C57         0.1270    1.2160   -0.3340 c         1 MOL      0.714749
    166 O25        -0.9660    1.7620   -0.1670 o         1 MOL     -0.728065
    167 O26         0.1470    0.0120   -0.5860 o         1 MOL     -0.728065
    168 H71         4.4350    0.8140   -0.1280 hn        1 MOL     -0.126208
    169 H72         3.5800    3.4390    0.8480 h1        1 MOL      0.090850
    170 H73         1.6510    1.9340    1.8120 hc        1 MOL      0.047410
    171 H74         2.5140    0.6070    0.9890 hc        1 MOL      0.047410
    172 H75         2.0270    1.9070   -1.1100 hc        1 MOL     -0.009064
    173 H76         1.1920    3.1030   -0.1960 hc        1 MOL     -0.009064
    174 N15         4.8740    1.0950    2.7220 n         1 MOL      0.144275
    175 C58         5.4730    0.7720    3.9840 c3        1 MOL     -0.310208
    176 H77         6.0500   -0.1480    3.8870 h1        1 MOL      0.094964
    177 H78         6.1330    1.5830    4.2930 h1        1 MOL      0.094964
    178 H79         4.6930    0.6340    4.7320 h1        1 MOL      0.094964
    179 H80         5.1200    0.5020    1.9420 hn        1 MOL     -0.097082
    180 Ca1        -2.4220   -0.4330   -1.2430 Ca        1 MOL      1.792335
    181 O27        -1.5850   -0.0750   -3.7360 oh        1 MOL     -0.897072
    182 H81        -1.9100    0.8210   -3.8040 ho        1 MOL      0.417777
    183 H82        -1.7410   -0.4490   -4.6060 ho        1 MOL      0.417777
@<TRIPOS>BOND
     1    1    2 1   
     2    1    4 1   
     3    1    5 1   
     4    1    6 1   
     5    2    3 2   
     6    2    7 1   
     7    7    8 1   
     8    7   15 1   
     9    8    9 1   
    10    8   11 1   
    11    8   16 1   
    12    9   10 2   
    13    9   19 1   
    14   11   12 1   
    15   11   17 1   
    16   11   18 1   
    17   12   13 1   
    18   12   14 1   
    19   19   20 1   
    20   19   27 1   
    21   20   21 1   
    22   20   23 1   
    23   20   28 1   
    24   21   22 2   
    25   21   38 1   
    26   23   24 1   
    27   23   25 1   
    28   23   29 1   
    29   24   26 1   
    30   24   30 1   
    31   24   31 1   
    32   25   32 1   
    33   25   33 1   
    34   25   34 1   
    35   26   35 1   
    36   26   36 1   
    37   26   37 1   
    38   38   39 1   
    39   38   46 1   
    40   39   40 1   
    41   39   42 1   
    42   39   47 1   
    43   40   41 2   
    44   40   50 1   
    45   42   43 1   
    46   42   48 1   
    47   42   49 1   
    48   43   44 1   
    49   43   45 1   
    50   50   51 1   
    51   50   54 1   
    52   51   52 1   
    53   51   55 1   
    54   51   56 1   
    55   52   53 2   
    56   52   57 1   
    57   57   58 1   
    58   57   65 1   
    59   58   59 1   
    60   58   61 1   
    61   58   66 1   
    62   59   60 2   
    63   59   69 1   
    64   61   62 1   
    65   61   67 1   
    66   61   68 1   
    67   62   63 1   
    68   62   64 1   
    69   69   70 1   
    70   69   73 1   
    71   70   71 1   
    72   70   74 1   
    73   70   75 1   
    74   71   72 2   
    75   71   76 1   
    76   76   77 1   
    77   76   85 1   
    78   77   78 1   
    79   77   80 1   
    80   77   86 1   
    81   78   79 2   
    82   78   93 1   
    83   80   81 1   
    84   80   87 1   
    85   80   88 1   
    86   81   82 1   
    87   81   89 1   
    88   81   90 1   
    89   82   83 1   
    90   82   84 2   
    91   83   91 1   
    92   83   92 1   
    93   93   94 1   
    94   93  100 1   
    95   94   95 1   
    96   94   97 1   
    97   94  101 1   
    98   95   96 2   
    99   95  109 1   
   100   97   98 1   
   101   97   99 1   
   102   97  102 1   
   103   98  103 1   
   104   98  104 1   
   105   98  105 1   
   106   99  106 1   
   107   99  107 1   
   108   99  108 1   
   109  109  110 1   
   110  109  117 1   
   111  110  111 1   
   112  110  113 1   
   113  110  118 1   
   114  111  112 2   
   115  111  123 1   
   116  113  114 1   
   117  113  119 1   
   118  113  120 1   
   119  114  115 1   
   120  114  116 2   
   121  115  121 1   
   122  115  122 1   
   123  123  124 1   
   124  123  135 1   
   125  124  125 1   
   126  124  127 1   
   127  124  136 1   
   128  125  126 2   
   129  125  144 1   
   130  127  128 1   
   131  127  137 1   
   132  127  138 1   
   133  128  129 ar  
   134  128  130 ar  
   135  129  131 ar  
   136  129  139 1   
   137  130  132 ar  
   138  130  140 1   
   139  131  133 ar  
   140  131  141 1   
   141  132  133 ar  
   142  132  142 1   
   143  133  134 1   
   144  134  143 1   
   145  144  145 1   
   146  144  153 1   
   147  145  146 1   
   148  145  148 1   
   149  145  154 1   
   150  146  147 2   
   151  146  159 1   
   152  148  149 1   
   153  148  155 1   
   154  148  156 1   
   155  149  150 1   
   156  149  157 1   
   157  149  158 1   
   158  150  151 1   
   159  150  152 1   
   160  159  160 1   
   161  159  168 1   
   162  160  161 1   
   163  160  163 1   
   164  160  169 1   
   165  161  162 2   
   166  161  174 1   
   167  163  164 1   
   168  163  170 1   
   169  163  171 1   
   170  164  165 1   
   171  164  172 1   
   172  164  173 1   
   173  165  166 1   
   174  165  167 1   
   175  174  175 1   
   176  174  179 1   
   177  175  176 1   
   178  175  177 1   
   179  175  178 1   
   180  181  182 1   
   181  181  183 1   
@<TRIPOS>SUBSTRUCTURE
     1 MOL         1 TEMP              0 ****  ****    0 ROOT
