@<TRIPOS>MOLECULE
MOL
  189   185     1     0     0
SMALL
resp


@<TRIPOS>ATOM
      1 C1          0.2020   -4.0180    6.0650 c3        1 MOL     -0.411641
      2 C2          0.8360   -3.5690    4.7440 c         1 MOL      0.811053
      3 O1          1.1370   -2.4150    4.5500 o         1 MOL     -0.630248
      4 H1         -0.2600   -3.1610    6.5560 hc        1 MOL      0.103144
      5 H2         -0.5570   -4.7740    5.8650 hc        1 MOL      0.103144
      6 H3          0.9720   -4.4360    6.7140 hc        1 MOL      0.103144
      7 N1          1.1310   -4.5020    3.8260 n         1 MOL     -0.749122
      8 C3          1.7290   -4.1960    2.4850 c3        1 MOL      0.382776
      9 C4          1.3340   -5.2750    1.4770 c         1 MOL      0.338364
     10 O2          1.5840   -6.4510    1.7090 o         1 MOL     -0.525625
     11 C5          3.2610   -4.0100    2.5980 c3        1 MOL     -0.191458
     12 C6          3.9990   -3.5470    1.3890 c         1 MOL      0.734628
     13 O3          5.0520   -4.1450    1.0780 o         1 MOL     -0.697145
     14 O4          3.5360   -2.6000    0.7590 o         1 MOL     -0.697145
     15 H4          0.9010   -5.4730    4.0090 hn        1 MOL      0.333906
     16 H5          1.4230   -3.2050    2.1600 h1        1 MOL      0.083009
     17 H6          3.5810   -5.0060    2.9240 hc        1 MOL      0.015076
     18 H7          3.4600   -3.3360    3.4290 hc        1 MOL      0.015076
     19 N2          0.8910   -4.7190    0.3080 n         1 MOL     -0.030214
     20 C7          0.7250   -5.3900   -0.9730 c3        1 MOL      0.003359
     21 C8          2.0190   -5.3200   -1.9320 c         1 MOL      0.666145
     22 O5          2.4310   -6.3150   -2.5430 o         1 MOL     -0.613281
     23 C9         -0.6670   -4.8810   -1.5330 c3        1 MOL      0.199963
     24 C10        -1.8010   -5.6380   -0.8440 c3        1 MOL     -0.056669
     25 C11        -0.7950   -4.9800   -3.0160 c3        1 MOL     -0.194973
     26 C12        -3.2470   -5.0780   -1.1500 c3        1 MOL     -0.187902
     27 H8          0.6550   -3.7300    0.3480 hn        1 MOL     -0.181075
     28 H9          0.7140   -6.4600   -0.7710 h1        1 MOL      0.001651
     29 H10        -0.7760   -3.8150   -1.3200 hc        1 MOL     -0.005571
     30 H11        -1.6900   -5.7150    0.2380 hc        1 MOL      0.004821
     31 H12        -1.6760   -6.6760   -1.1490 hc        1 MOL      0.004821
     32 H13         0.0240   -4.3950   -3.4410 hc        1 MOL      0.029458
     33 H14        -0.5920   -5.9800   -3.3980 hc        1 MOL      0.029458
     34 H15        -1.7270   -4.5450   -3.3570 hc        1 MOL      0.029458
     35 H16        -3.3610   -4.0500   -0.7860 hc        1 MOL      0.060984
     36 H17        -3.4450   -5.1870   -2.2110 hc        1 MOL      0.060984
     37 H18        -4.0680   -5.5740   -0.6390 hc        1 MOL      0.060984
     38 N3          2.6860   -4.1550   -2.1010 n         1 MOL     -0.468200
     39 C13         3.5450   -3.8150   -3.3090 c3        1 MOL      0.122587
     40 C14         4.9580   -3.3800   -2.9250 c         1 MOL      0.328692
     41 O6          5.8360   -3.4820   -3.7680 o         1 MOL     -0.557602
     42 C15         2.8390   -2.7070   -4.1140 c3        1 MOL     -0.275535
     43 C16         2.3260   -1.5390   -3.2400 c         1 MOL      0.802416
     44 O7          2.8590   -1.2320   -2.1840 o         1 MOL     -0.727701
     45 O8          1.3880   -0.8420   -3.6490 o         1 MOL     -0.727701
     46 H19         2.4790   -3.4250   -1.4360 hn        1 MOL      0.246433
     47 H20         3.6040   -4.6010   -4.0520 h1        1 MOL      0.102466
     48 H21         1.9610   -3.1010   -4.6200 hc        1 MOL      0.064181
     49 H22         3.5370   -2.2890   -4.8320 hc        1 MOL      0.064181
     50 N4          5.2320   -3.1550   -1.6050 n         1 MOL     -0.025871
     51 C17         6.5900   -2.7960   -1.0870 c3        1 MOL     -0.170783
     52 C18         7.1530   -1.4040   -1.4300 c         1 MOL      0.473377
     53 O9          8.3640   -1.1860   -1.3310 o         1 MOL     -0.624769
     54 H23         4.4770   -3.0760   -0.9430 hn        1 MOL      0.064803
     55 H24         7.2450   -3.5850   -1.4650 h1        1 MOL      0.105710
     56 H25         6.6190   -2.8650   -0.0040 h1        1 MOL      0.105710
     57 N5          6.3390   -0.4430   -1.8570 n         1 MOL     -0.176693
     58 C19         6.7800    0.8790   -2.3850 c3        1 MOL     -0.031907
     59 C20         7.2600    1.9030   -1.3180 c         1 MOL      0.462930
     60 O10         7.7770    2.9540   -1.7560 o         1 MOL     -0.558810
     61 C21         5.6300    1.5490   -3.1540 c3        1 MOL     -0.309647
     62 C22         4.4020    1.6640   -2.3400 c         1 MOL      0.832197
     63 O11         4.2420    1.1280   -1.2050 o         1 MOL     -0.716096
     64 O12         3.4520    2.2850   -2.8140 o         1 MOL     -0.716096
     65 H26         5.3590   -0.6630   -1.8670 hn        1 MOL      0.200597
     66 H27         7.6090    0.7820   -3.0830 h1        1 MOL      0.100726
     67 H28         5.4640    0.8450   -3.9740 hc        1 MOL      0.091374
     68 H29         5.8900    2.5000   -3.6060 hc        1 MOL      0.091374
     69 N6          7.0410    1.6930   -0.0330 n         1 MOL     -0.328484
     70 C23         7.3340    2.7080    1.0440 c3        1 MOL     -0.069581
     71 C24         6.2100    3.6340    1.4390 c         1 MOL      0.474318
     72 O13         6.4590    4.5110    2.2910 o         1 MOL     -0.585310
     73 H30         6.7400    0.7640    0.2220 hn        1 MOL      0.266636
     74 H31         8.2940    3.2000    0.9420 h1        1 MOL      0.077961
     75 H32         7.4430    2.1230    1.9650 h1        1 MOL      0.077961
     76 N7          5.0210    3.4040    0.9290 n         1 MOL     -0.242854
     77 C25         3.7740    4.0920    1.2420 c3        1 MOL     -0.006674
     78 C26         2.5810    3.2030    1.7210 c         1 MOL      0.594119
     79 O14         2.4570    1.9980    1.3340 o         1 MOL     -0.697984
     80 C27         3.4220    5.0740    0.1250 c3        1 MOL     -0.077942
     81 C28         4.4490    6.2440    0.0100 c3        1 MOL     -0.206128
     82 C29         3.7920    7.4050   -0.7310 c         1 MOL      0.634610
     83 N8          3.7300    7.2880   -2.0300 n         1 MOL     -0.813976
     84 O15         3.3870    8.3580   -0.1190 o         1 MOL     -0.580330
     85 H33         4.9490    2.6020    0.3210 hn        1 MOL      0.213540
     86 H34         3.9660    4.7230    2.1140 h1        1 MOL      0.039252
     87 H35         2.5060    5.5930    0.3910 hc        1 MOL      0.069596
     88 H36         3.3360    4.5850   -0.8510 hc        1 MOL      0.069596
     89 H37         5.3450    5.9060   -0.5010 hc        1 MOL      0.086864
     90 H38         4.7580    6.6540    0.9760 hc        1 MOL      0.086864
     91 H39         4.0500    6.3880   -2.3810 hn        1 MOL      0.379437
     92 H40         3.2810    8.0420   -2.5160 hn        1 MOL      0.379437
     93 N9          1.6230    3.8290    2.3650 n         1 MOL     -0.524953
     94 C30         0.3140    3.1290    2.6560 c3        1 MOL      0.345396
     95 C31        -0.6800    3.5980    1.5910 c         1 MOL      0.323469
     96 O16        -0.8940    4.7800    1.3390 o         1 MOL     -0.572439
     97 C32        -0.0610    3.4000    4.0590 c3        1 MOL      0.141578
     98 C33        -1.3930    2.7630    4.4100 c3        1 MOL     -0.187253
     99 C34         1.0090    2.9640    5.1050 c3        1 MOL     -0.187253
    100 H41         1.6020    4.8270    2.4680 hn        1 MOL      0.304869
    101 H42         0.4000    2.0500    2.5690 h1        1 MOL      0.089094
    102 H43        -0.0140    4.4840    4.0760 hc        1 MOL     -0.043327
    103 H44        -1.3640    1.7550    3.9990 hc        1 MOL      0.036700
    104 H45        -1.5800    2.7800    5.4750 hc        1 MOL      0.036700
    105 H46        -2.1220    3.3900    3.9020 hc        1 MOL      0.036700
    106 H47         1.9930    3.3310    4.8220 hc        1 MOL      0.036700
    107 H48         0.7970    3.3400    6.1130 hc        1 MOL      0.036700
    108 H49         1.0970    1.8810    5.1050 hc        1 MOL      0.036700
    109 N10        -1.4540    2.6400    1.0610 n         1 MOL      0.021940
    110 C35        -2.5500    2.8090    0.0850 c3        1 MOL      0.262365
    111 C36        -3.9420    2.6600    0.7130 c         1 MOL      0.151912
    112 O17        -4.0800    2.0450    1.7410 o         1 MOL     -0.373770
    113 C37        -2.2730    1.7850   -1.0610 c3        1 MOL     -0.641268
    114 C38        -3.3270    1.7690   -2.1790 c         1 MOL      0.883433
    115 N11        -3.3760    2.8530   -2.8970 n         1 MOL     -0.853943
    116 O18        -4.1780    0.8800   -2.2370 o         1 MOL     -0.635029
    117 H50        -1.2090    1.7000    1.3060 hn        1 MOL     -0.061532
    118 H51        -2.4810    3.8320   -0.2770 h1        1 MOL      0.014851
    119 H52        -2.2510    0.7950   -0.6050 hc        1 MOL      0.183428
    120 H53        -1.2840    1.9980   -1.4630 hc        1 MOL      0.183428
    121 H54        -2.6810    3.5500   -2.6700 hn        1 MOL      0.372690
    122 H55        -3.8410    2.9070   -3.7920 hn        1 MOL      0.372690
    123 N12        -4.9940    3.0900    0.0190 n         1 MOL     -0.183161
    124 C39        -6.4680    2.9760    0.3960 c3        1 MOL      0.144538
    125 C40        -6.9670    1.4810    0.5980 c         1 MOL      0.297580
    126 O19        -7.8380    1.3410    1.4520 o         1 MOL     -0.549264
    127 C41        -7.3300    3.6320   -0.6730 c3        1 MOL     -0.085878
    128 C42        -7.0740    3.1610   -2.0930 ca        1 MOL      0.219613
    129 C43        -6.5370    4.0170   -3.0380 ca        1 MOL     -0.315023
    130 C44        -7.7070    2.0210   -2.5380 ca        1 MOL     -0.315023
    131 C45        -6.5270    3.6580   -4.4170 ca        1 MOL     -0.167210
    132 C46        -7.7810    1.6270   -3.8930 ca        1 MOL     -0.167210
    133 C47        -7.1770    2.4500   -4.8680 ca        1 MOL      0.265822
    134 O20        -6.9560    1.9870   -6.1190 oh        1 MOL     -0.544416
    135 H56        -4.7460    3.6820   -0.7680 hn        1 MOL      0.139077
    136 H57        -6.6750    3.6120    1.2490 h1        1 MOL      0.036080
    137 H58        -7.0820    4.6900   -0.6920 hc        1 MOL      0.023655
    138 H59        -8.3500    3.5060   -0.3050 hc        1 MOL      0.023655
    139 H60        -5.9660    4.8700   -2.7020 ha        1 MOL      0.159968
    140 H61        -8.1940    1.3510   -1.8340 ha        1 MOL      0.159968
    141 H62        -6.0310    4.2860   -5.1360 ha        1 MOL      0.122923
    142 H63        -8.2690    0.7110   -4.1760 ha        1 MOL      0.122923
    143 H64        -7.2550    1.0760   -6.1560 ho        1 MOL      0.427814
    144 N13        -6.3760    0.4780   -0.0640 n         1 MOL      0.184111
    145 C48        -6.6130   -0.9230    0.1600 c3        1 MOL     -0.512220
    146 C49        -5.6440   -1.5480    1.2010 c         1 MOL      0.556073
    147 O21        -5.9340   -2.6000    1.7620 o         1 MOL     -0.496681
    148 C50        -6.2570   -1.6390   -1.1620 c3        1 MOL      0.346554
    149 C51        -6.7380   -3.0640   -1.2730 c3        1 MOL     -0.342249
    150 C52        -8.2240   -3.1340   -1.1840 c         1 MOL      0.648816
    151 O22        -8.9700   -2.3780   -1.8370 o         1 MOL     -0.716896
    152 O23        -8.7600   -3.8110   -0.2540 o         1 MOL     -0.716896
    153 H65        -5.5860    0.6490   -0.6790 hn        1 MOL      0.296295
    154 H66        -7.6030   -1.2160    0.5160 h1        1 MOL      0.253483
    155 H67        -5.1750   -1.6810   -1.3320 hc        1 MOL     -0.063848
    156 H68        -6.6280   -1.0500   -1.9960 hc        1 MOL     -0.063848
    157 H69        -6.1600   -3.7100   -0.6030 hc        1 MOL      0.047277
    158 H70        -6.4640   -3.3720   -2.2740 hc        1 MOL      0.047277
    159 N14        -4.5680   -0.8340    1.5250 n         1 MOL     -0.311023
    160 C53        -3.6440   -1.2810    2.5520 c3        1 MOL     -0.065388
    161 C54        -3.8710   -0.6850    3.9330 c         1 MOL      0.430996
    162 O24        -3.5880   -1.4190    4.9030 o         1 MOL     -0.564986
    163 C55        -2.2670   -0.9970    2.1240 c3        1 MOL      0.034430
    164 C56        -1.7630   -1.7060    0.9090 c3        1 MOL      0.012721
    165 C57        -0.3670   -1.1610    0.5030 c         1 MOL      0.612310
    166 O25         0.5010   -1.9760    0.0020 o         1 MOL     -0.607441
    167 O26        -0.0640    0.0230    0.7050 o         1 MOL     -0.607441
    168 H71        -4.1940   -0.0910    0.9510 hn        1 MOL      0.080294
    169 H72        -3.8070   -2.3510    2.6400 h1        1 MOL      0.091945
    170 H73        -1.6250   -1.3410    2.9310 hc        1 MOL      0.014664
    171 H74        -2.2430    0.0650    1.8600 hc        1 MOL      0.014664
    172 H75        -2.4510   -1.3980    0.1140 hc        1 MOL      0.039669
    173 H76        -1.7630   -2.7910    1.0430 hc        1 MOL      0.039669
    174 N15        -4.5450    0.4120    4.0180 n         1 MOL     -0.105298
    175 C58        -4.8160    1.1600    5.2520 c3        1 MOL     -0.122691
    176 H77        -4.6280    2.2200    5.0810 h1        1 MOL      0.060885
    177 H78        -5.8560    1.0180    5.5420 h1        1 MOL      0.060885
    178 H79        -4.1630    0.8000    6.0470 h1        1 MOL      0.060885
    179 H80        -4.6950    0.9580    3.1800 hn        1 MOL      0.130531
    180 Ca1         2.4740   -0.2210    0.0840 Ca        1 MOL      1.709282
    181 O27         2.0430   -0.6030    2.6540 oh        1 MOL     -0.833825
    182 H81         1.7480   -1.3720    3.1340 ho        1 MOL      0.400176
    183 H82         2.5940   -0.1230    3.2780 ho        1 MOL      0.400176
    184 O28         4.8710   -0.0100    1.6040 oh        1 MOL     -0.833825
    185 H83         4.5880    0.3410    2.4520 ho        1 MOL      0.400176
    186 H84         5.8060   -0.1600    1.7070 ho        1 MOL      0.400176
    187 O29         0.9980    1.1280   -1.9860 oh        1 MOL     -0.833825
    188 H85         0.8970    0.2640   -2.3880 ho        1 MOL      0.400176
    189 H86         1.5910    1.5980   -2.5680 ho        1 MOL      0.400176
@<TRIPOS>BOND
     1    1    2 1   
     2    1    4 1   
     3    1    5 1   
     4    1    6 1   
     5    2    3 2   
     6    2    7 1   
     7    7    8 1   
     8    7   15 1   
     9    8    9 1   
    10    8   11 1   
    11    8   16 1   
    12    9   10 2   
    13    9   19 1   
    14   11   12 1   
    15   11   17 1   
    16   11   18 1   
    17   12   13 1   
    18   12   14 1   
    19   19   20 1   
    20   19   27 1   
    21   20   21 1   
    22   20   23 1   
    23   20   28 1   
    24   21   22 2   
    25   21   38 1   
    26   23   24 1   
    27   23   25 1   
    28   23   29 1   
    29   24   26 1   
    30   24   30 1   
    31   24   31 1   
    32   25   32 1   
    33   25   33 1   
    34   25   34 1   
    35   26   35 1   
    36   26   36 1   
    37   26   37 1   
    38   38   39 1   
    39   38   46 1   
    40   39   40 1   
    41   39   42 1   
    42   39   47 1   
    43   40   41 2   
    44   40   50 1   
    45   42   43 1   
    46   42   48 1   
    47   42   49 1   
    48   43   44 1   
    49   43   45 1   
    50   50   51 1   
    51   50   54 1   
    52   51   52 1   
    53   51   55 1   
    54   51   56 1   
    55   52   53 2   
    56   52   57 1   
    57   57   58 1   
    58   57   65 1   
    59   58   59 1   
    60   58   61 1   
    61   58   66 1   
    62   59   60 2   
    63   59   69 1   
    64   61   62 1   
    65   61   67 1   
    66   61   68 1   
    67   62   63 1   
    68   62   64 1   
    69   69   70 1   
    70   69   73 1   
    71   70   71 1   
    72   70   74 1   
    73   70   75 1   
    74   71   72 2   
    75   71   76 1   
    76   76   77 1   
    77   76   85 1   
    78   77   78 1   
    79   77   80 1   
    80   77   86 1   
    81   78   79 2   
    82   78   93 1   
    83   80   81 1   
    84   80   87 1   
    85   80   88 1   
    86   81   82 1   
    87   81   89 1   
    88   81   90 1   
    89   82   83 1   
    90   82   84 2   
    91   83   91 1   
    92   83   92 1   
    93   93   94 1   
    94   93  100 1   
    95   94   95 1   
    96   94   97 1   
    97   94  101 1   
    98   95   96 2   
    99   95  109 1   
   100   97   98 1   
   101   97   99 1   
   102   97  102 1   
   103   98  103 1   
   104   98  104 1   
   105   98  105 1   
   106   99  106 1   
   107   99  107 1   
   108   99  108 1   
   109  109  110 1   
   110  109  117 1   
   111  110  111 1   
   112  110  113 1   
   113  110  118 1   
   114  111  112 2   
   115  111  123 1   
   116  113  114 1   
   117  113  119 1   
   118  113  120 1   
   119  114  115 1   
   120  114  116 2   
   121  115  121 1   
   122  115  122 1   
   123  123  124 1   
   124  123  135 1   
   125  124  125 1   
   126  124  127 1   
   127  124  136 1   
   128  125  126 2   
   129  125  144 1   
   130  127  128 1   
   131  127  137 1   
   132  127  138 1   
   133  128  129 ar  
   134  128  130 ar  
   135  129  131 ar  
   136  129  139 1   
   137  130  132 ar  
   138  130  140 1   
   139  131  133 ar  
   140  131  141 1   
   141  132  133 ar  
   142  132  142 1   
   143  133  134 1   
   144  134  143 1   
   145  144  145 1   
   146  144  153 1   
   147  145  146 1   
   148  145  148 1   
   149  145  154 1   
   150  146  147 2   
   151  146  159 1   
   152  148  149 1   
   153  148  155 1   
   154  148  156 1   
   155  149  150 1   
   156  149  157 1   
   157  149  158 1   
   158  150  151 1   
   159  150  152 1   
   160  159  160 1   
   161  159  168 1   
   162  160  161 1   
   163  160  163 1   
   164  160  169 1   
   165  161  162 2   
   166  161  174 1   
   167  163  164 1   
   168  163  170 1   
   169  163  171 1   
   170  164  165 1   
   171  164  172 1   
   172  164  173 1   
   173  165  166 1   
   174  165  167 1   
   175  174  175 1   
   176  174  179 1   
   177  175  176 1   
   178  175  177 1   
   179  175  178 1   
   180  181  182 1   
   181  181  183 1   
   182  184  185 1   
   183  184  186 1   
   184  187  188 1   
   185  187  189 1   
@<TRIPOS>SUBSTRUCTURE
     1 MOL         1 TEMP              0 ****  ****    0 ROOT
