@<TRIPOS>MOLECULE
MOL
  179   176     1     0     0
SMALL
resp


@<TRIPOS>ATOM
      1 C1          1.6450    1.7680    6.3300 c3        1 MOL     -0.195983
      2 C2          1.3440    1.4290    4.8310 c         1 MOL      0.776674
      3 O1          2.1370    1.0500    4.0110 o         1 MOL     -0.625025
      4 H1          0.9960    2.5810    6.6550 hc        1 MOL      0.048606
      5 H2          1.4590    0.8880    6.9460 hc        1 MOL      0.048606
      6 H3          2.6860    2.0710    6.4330 hc        1 MOL      0.048606
      7 N1          0.0690    1.4450    4.4820 n         1 MOL     -0.568773
      8 C3         -0.5230    1.4680    3.1270 c3        1 MOL     -0.099706
      9 C4         -0.5360    2.9040    2.5760 c         1 MOL      0.521893
     10 O2         -1.3030    3.7760    3.0510 o         1 MOL     -0.493949
     11 C5         -2.0090    1.0300    3.2720 c3        1 MOL     -0.104313
     12 C6         -2.8560    0.8920    2.0580 c         1 MOL      1.043834
     13 O3         -3.9490    0.3460    2.0890 o         1 MOL     -0.913444
     14 O4         -2.3470    1.2880    0.9590 o         1 MOL     -0.913444
     15 H4         -0.6370    1.4600    5.1970 hn        1 MOL      0.305554
     16 H5          0.0140    0.7180    2.5460 h1        1 MOL      0.088732
     17 H6         -2.4510    1.7240    3.9870 hc        1 MOL      0.033696
     18 H7         -2.0440    0.0690    3.7950 hc        1 MOL      0.033696
     19 N2          0.2640    3.1870    1.4830 n         1 MOL     -0.193492
     20 C7          0.5570    4.5670    0.8770 c3        1 MOL     -0.139509
     21 C8         -0.7010    5.2580    0.4300 c         1 MOL      0.475574
     22 O5         -0.9290    6.3570    0.8540 o         1 MOL     -0.533473
     23 C9          1.5250    4.4810   -0.3310 c3        1 MOL     -0.159405
     24 C10         2.0730    5.8880   -0.6210 c3        1 MOL     -0.075909
     25 C11         2.8720    5.8260   -1.8800 c3        1 MOL      0.042224
     26 C12         3.1950    7.2920   -2.3100 c3        1 MOL      0.082864
     27 N3          4.1130    7.3590   -3.4340 n4        1 MOL     -0.362060
     28 H8          0.8760    2.4640    1.1340 hn        1 MOL      0.090280
     29 H9          1.0040    5.1500    1.6800 h1        1 MOL      0.113873
     30 H10         1.0060    3.9830   -1.1520 hc        1 MOL      0.138833
     31 H11         2.4050    3.9380    0.0190 hc        1 MOL      0.138833
     32 H12         2.7060    6.2330    0.2010 hc        1 MOL      0.053815
     33 H13         1.2520    6.6040   -0.6660 hc        1 MOL      0.053815
     34 H14         2.2180    5.3910   -2.6380 hc        1 MOL      0.008193
     35 H15         3.8030    5.2990   -1.7090 hc        1 MOL      0.008193
     36 H16         3.6100    7.7870   -1.4330 hx        1 MOL      0.062087
     37 H17         2.2080    7.7150   -2.5180 hx        1 MOL      0.062087
     38 H18         5.0000    6.9130   -3.2410 hn        1 MOL      0.327934
     39 H19         3.7290    6.9320   -4.2690 hn        1 MOL      0.327934
     40 H20         4.2980    8.3090   -3.7180 hn        1 MOL      0.327934
     41 N4         -1.6090    4.5610   -0.3310 n         1 MOL     -0.099970
     42 C13        -2.7860    5.0520   -0.9830 c3        1 MOL      0.049677
     43 C14        -4.1250    4.4970   -0.4570 c         1 MOL      0.412710
     44 O6         -5.2100    4.7920   -0.9670 o         1 MOL     -0.532535
     45 C15        -2.7240    4.8050   -2.5400 c3        1 MOL     -0.261630
     46 C16        -2.4410    3.3170   -2.8840 c         1 MOL      0.829422
     47 O7         -2.6550    2.4830   -1.9820 o         1 MOL     -0.722924
     48 O8         -2.0150    2.9460   -4.0220 o         1 MOL     -0.722924
     49 H21        -1.2360    3.7320   -0.7660 hn        1 MOL      0.094474
     50 H22        -2.5960    6.1150   -0.8100 h1        1 MOL      0.061472
     51 H23        -1.8530    5.3320   -2.9420 hc        1 MOL      0.055221
     52 H24        -3.6380    5.1750   -3.0040 hc        1 MOL      0.055221
     53 N5         -4.1240    3.7140    0.6010 n         1 MOL     -0.222848
     54 C17        -5.3310    3.2690    1.2970 c3        1 MOL     -0.066796
     55 C18        -6.2080    2.2090    0.7300 c         1 MOL      0.517719
     56 O9         -7.3680    2.0150    1.1350 o         1 MOL     -0.575440
     57 H25        -3.2270    3.3270    0.8820 hn        1 MOL      0.137528
     58 H26        -5.9980    4.0480    1.6850 h1        1 MOL      0.083424
     59 H27        -4.9200    2.8200    2.1920 h1        1 MOL      0.083424
     60 N6         -5.7150    1.4310   -0.3080 n         1 MOL     -0.257866
     61 C19        -6.5870    0.4670   -1.0580 c3        1 MOL     -0.034351
     62 C20        -6.9150   -0.8380   -0.2020 c         1 MOL      0.441029
     63 O10        -7.6080   -1.7750   -0.6770 o         1 MOL     -0.541196
     64 C21        -5.8580    0.0160   -2.3440 c3        1 MOL     -0.310234
     65 C22        -4.8790   -1.1500   -2.1220 c         1 MOL      0.554839
     66 N7         -4.9730   -2.2840   -2.8380 n         1 MOL     -0.661555
     67 O11        -4.0160   -1.1270   -1.2530 o         1 MOL     -0.656485
     68 H28        -4.7680    1.5460   -0.6320 hn        1 MOL      0.220335
     69 H29        -7.4900    1.0730   -1.2090 h1        1 MOL      0.132245
     70 H30        -5.3760    0.9060   -2.7540 hc        1 MOL      0.124366
     71 H31        -6.6930   -0.2100   -3.0200 hc        1 MOL      0.124366
     72 H32        -5.6690   -2.4350   -3.5500 hn        1 MOL      0.348733
     73 H33        -4.2850   -2.9720   -2.5710 hn        1 MOL      0.348733
     74 N8         -6.4260   -0.9090    1.0330 n         1 MOL     -0.335887
     75 C23        -6.7270   -2.0940    1.9080 c3        1 MOL     -0.069232
     76 C24        -5.4660   -3.0250    2.0960 c         1 MOL      0.436349
     77 O12        -5.4550   -4.0630    2.8030 o         1 MOL     -0.552335
     78 H34        -5.8130   -0.1730    1.3790 hn        1 MOL      0.399160
     79 H35        -7.5260   -2.7400    1.5370 h1        1 MOL      0.096618
     80 H36        -7.0750   -1.7070    2.8570 h1        1 MOL      0.096618
     81 N9         -4.3680   -2.6790    1.3620 n         1 MOL     -0.262158
     82 C25        -3.1280   -3.5190    1.5270 c3        1 MOL     -0.045338
     83 C26        -1.7420   -2.8140    1.2860 c         1 MOL      0.498313
     84 O13        -1.7100   -1.8060    0.6110 o         1 MOL     -0.637350
     85 C27        -3.2530   -4.7560    0.6980 c3        1 MOL     -0.165886
     86 C28        -3.0860   -4.6500   -0.8340 ca        1 MOL      0.074121
     87 C29        -1.8360   -4.3300   -1.5000 ca        1 MOL     -0.131448
     88 C30        -4.1800   -5.1140   -1.5280 ca        1 MOL     -0.131448
     89 C31        -1.7580   -4.4240   -2.8750 ca        1 MOL     -0.246327
     90 C32        -4.0570   -5.1230   -2.9210 ca        1 MOL     -0.246327
     91 C33        -2.8610   -4.8380   -3.6350 ca        1 MOL      0.276570
     92 O14        -2.8550   -4.9690   -5.0060 oh        1 MOL     -0.523452
     93 H37        -4.2880   -1.7880    0.8880 hn        1 MOL      0.395895
     94 H38        -3.0120   -3.8800    2.5390 h1        1 MOL      0.096597
     95 H39        -4.1700   -5.2770    0.9770 hc        1 MOL      0.079845
     96 H40        -2.5060   -5.4650    1.0740 hc        1 MOL      0.079845
     97 H41        -0.9850   -4.1690   -0.8520 ha        1 MOL      0.146831
     98 H42        -5.0780   -5.3740   -0.9810 ha        1 MOL      0.146831
     99 H43        -0.8190   -4.2090   -3.3750 ha        1 MOL      0.140226
    100 H44        -4.9690   -5.3750   -3.4500 ha        1 MOL      0.140226
    101 H45        -1.9820   -4.8500   -5.3920 ho        1 MOL      0.389492
    102 N10        -0.6610   -3.3470    1.8380 n         1 MOL     -0.341621
    103 C34         0.7650   -2.9700    1.8040 c3        1 MOL      0.046548
    104 C35         1.5670   -3.7050    0.7030 c         1 MOL      0.324514
    105 O15         1.4270   -4.9160    0.5890 o         1 MOL     -0.544372
    106 C36         1.3470   -3.1800    3.1630 c3        1 MOL      0.130057
    107 C37         0.4630   -2.7340    4.4260 c3        1 MOL      0.022417
    108 C38         2.7430   -2.4260    3.1830 c3        1 MOL     -0.410509
    109 C39         1.0180   -3.1820    5.7020 c3        1 MOL     -0.132334
    110 H46        -0.8610   -4.0990    2.4760 hn        1 MOL      0.235887
    111 H47         0.6700   -1.9360    1.4790 h1        1 MOL      0.106789
    112 H48         1.4560   -4.2360    3.3950 hc        1 MOL     -0.002296
    113 H49        -0.6070   -2.9090    4.2830 hc        1 MOL      0.005932
    114 H50         0.5290   -1.6530    4.4280 hc        1 MOL      0.005932
    115 H51         2.4830   -1.3780    3.0420 hc        1 MOL      0.088807
    116 H52         3.2890   -2.3730    4.1250 hc        1 MOL      0.088807
    117 H53         3.4530   -2.7070    2.4110 hc        1 MOL      0.088807
    118 H54         0.6060   -2.5750    6.5110 hc        1 MOL      0.038055
    119 H55         0.7800   -4.1950    6.0100 hc        1 MOL      0.038055
    120 H56         2.0990   -3.0670    5.6400 hc        1 MOL      0.038055
    121 N11         2.2820   -2.8820   -0.0100 n         1 MOL      0.091949
    122 C40         3.2760   -3.3910   -1.0330 c3        1 MOL     -0.050655
    123 C41         4.6430   -3.0250   -0.6380 c         1 MOL      0.338740
    124 O16         4.8700   -2.1420    0.1760 o         1 MOL     -0.344273
    125 C42         3.0170   -2.8130   -2.4320 c3        1 MOL      0.220159
    126 O17         1.7880   -3.4140   -2.9090 oh        1 MOL     -0.660877
    127 H57         2.1160   -1.8860    0.1110 hn        1 MOL      0.220735
    128 H58         3.2130   -4.4780   -1.1140 h1        1 MOL      0.062462
    129 H59         3.8230   -2.9550   -3.1380 h1        1 MOL      0.017616
    130 H60         2.9120   -1.7310   -2.3440 h1        1 MOL      0.017616
    131 H61         2.1670   -4.0350   -3.5420 ho        1 MOL      0.418801
    132 N12         5.6070   -3.7840   -1.1080 n         1 MOL     -0.390468
    133 C43         7.0160   -3.5620   -0.8460 c3        1 MOL      0.128285
    134 C44         7.6260   -2.1370   -0.9660 c         1 MOL      0.427277
    135 O18         8.3660   -1.6820   -0.1140 o         1 MOL     -0.490508
    136 C45         7.9380   -4.5450   -1.6400 c3        1 MOL     -0.427692
    137 H62         5.3570   -4.3200   -1.9310 hn        1 MOL      0.271291
    138 H63         7.1520   -3.8660    0.1960 h1        1 MOL      0.085101
    139 H64         8.2110   -4.1560   -2.6170 hc        1 MOL      0.131598
    140 H65         8.8220   -4.6650   -1.0160 hc        1 MOL      0.131598
    141 H66         7.3940   -5.4890   -1.7480 hc        1 MOL      0.131598
    142 N13         7.1480   -1.3620   -1.9570 n         1 MOL     -0.325800
    143 C46         7.6810    0.0120   -2.1720 c3        1 MOL      0.118651
    144 C47         6.9630    1.0370   -1.2200 c         1 MOL      0.270045
    145 O19         7.4180    2.1120   -0.8090 o         1 MOL     -0.504646
    146 C48         7.2580    0.3570   -3.5730 c3        1 MOL     -0.290807
    147 H67         6.5250   -1.7740   -2.6340 hn        1 MOL      0.222625
    148 H68         8.7440    0.0940   -1.9590 h1        1 MOL      0.111362
    149 H69         7.6720   -0.3930   -4.2460 hc        1 MOL      0.080944
    150 H70         6.1750    0.4390   -3.6430 hc        1 MOL      0.080944
    151 H71         7.6790    1.3310   -3.8300 hc        1 MOL      0.080944
    152 N14         5.8570    0.6200   -0.5810 n         1 MOL      0.180376
    153 C49         5.1130    1.3730    0.4470 c3        1 MOL     -0.534821
    154 C50         5.7980    1.1070    1.8190 c         1 MOL      0.645469
    155 O20         5.9680    1.9610    2.6990 o         1 MOL     -0.557361
    156 C51         3.6110    0.9960    0.4410 c3        1 MOL      0.201632
    157 C52         2.9500    1.2160   -0.9310 c3        1 MOL     -0.001746
    158 C53         1.4510    0.7850   -0.8770 c         1 MOL      0.824934
    159 O21         1.0370   -0.3150   -0.4710 o         1 MOL     -0.819179
    160 O22         0.6360    1.5630   -1.4400 o         1 MOL     -0.819179
    161 H72         5.4650   -0.2200   -0.9910 hn        1 MOL      0.041464
    162 H73         5.1200    2.4280    0.2010 h1        1 MOL      0.166154
    163 H74         3.2100    1.7290    1.1490 hc        1 MOL      0.002170
    164 H75         3.5030   -0.0350    0.7840 hc        1 MOL      0.002170
    165 H76         3.4490    0.5460   -1.6400 hc        1 MOL     -0.050566
    166 H77         3.0600    2.2120   -1.3430 hc        1 MOL     -0.050566
    167 N15         6.2320   -0.1660    2.0290 n         1 MOL     -0.194375
    168 C54         7.1380   -0.4680    3.0820 c3        1 MOL     -0.300013
    169 H78         8.0900   -0.7910    2.6610 h1        1 MOL      0.118892
    170 H79         7.2950    0.4220    3.6930 h1        1 MOL      0.118892
    171 H80         6.7250   -1.2650    3.7000 h1        1 MOL      0.118892
    172 H81         6.0550   -0.8010    1.2660 hn        1 MOL      0.157526
    173 Ca1        -1.5180    0.2490   -1.2550 Ca        1 MOL      1.846759
    174 O23        -0.0550   -1.4210   -2.7210 oh        1 MOL     -0.855831
    175 H82        -0.3860   -1.5380   -3.6080 ho        1 MOL      0.392894
    176 H83         0.5700   -2.1440   -2.6080 ho        1 MOL      0.392894
    177 O24        -2.6800    0.3540   -3.6930 oh        1 MOL     -0.855831
    178 H84        -3.2530   -0.0540   -4.3410 ho        1 MOL      0.392894
    179 H85        -2.5090    1.2260   -4.0280 ho        1 MOL      0.392894
@<TRIPOS>BOND
     1    1    2 1   
     2    1    4 1   
     3    1    5 1   
     4    1    6 1   
     5    2    3 2   
     6    2    7 1   
     7    7    8 1   
     8    7   15 1   
     9    8    9 1   
    10    8   11 1   
    11    8   16 1   
    12    9   10 2   
    13    9   19 1   
    14   11   12 1   
    15   11   17 1   
    16   11   18 1   
    17   12   13 1   
    18   12   14 1   
    19   19   20 1   
    20   19   28 1   
    21   20   21 1   
    22   20   23 1   
    23   20   29 1   
    24   21   22 2   
    25   21   41 1   
    26   23   24 1   
    27   23   30 1   
    28   23   31 1   
    29   24   25 1   
    30   24   32 1   
    31   24   33 1   
    32   25   26 1   
    33   25   34 1   
    34   25   35 1   
    35   26   27 1   
    36   26   36 1   
    37   26   37 1   
    38   27   38 1   
    39   27   39 1   
    40   27   40 1   
    41   41   42 1   
    42   41   49 1   
    43   42   43 1   
    44   42   45 1   
    45   42   50 1   
    46   43   44 2   
    47   43   53 1   
    48   45   46 1   
    49   45   51 1   
    50   45   52 1   
    51   46   47 1   
    52   46   48 1   
    53   53   54 1   
    54   53   57 1   
    55   54   55 1   
    56   54   58 1   
    57   54   59 1   
    58   55   56 2   
    59   55   60 1   
    60   60   61 1   
    61   60   68 1   
    62   61   62 1   
    63   61   64 1   
    64   61   69 1   
    65   62   63 2   
    66   62   74 1   
    67   64   65 1   
    68   64   70 1   
    69   64   71 1   
    70   65   66 1   
    71   65   67 2   
    72   66   72 1   
    73   66   73 1   
    74   74   75 1   
    75   74   78 1   
    76   75   76 1   
    77   75   79 1   
    78   75   80 1   
    79   76   77 2   
    80   76   81 1   
    81   81   82 1   
    82   81   93 1   
    83   82   83 1   
    84   82   85 1   
    85   82   94 1   
    86   83   84 2   
    87   83  102 1   
    88   85   86 1   
    89   85   95 1   
    90   85   96 1   
    91   86   87 ar  
    92   86   88 ar  
    93   87   89 ar  
    94   87   97 1   
    95   88   90 ar  
    96   88   98 1   
    97   89   91 ar  
    98   89   99 1   
    99   90   91 ar  
   100   90  100 1   
   101   91   92 1   
   102   92  101 1   
   103  102  103 1   
   104  102  110 1   
   105  103  104 1   
   106  103  106 1   
   107  103  111 1   
   108  104  105 2   
   109  104  121 1   
   110  106  107 1   
   111  106  108 1   
   112  106  112 1   
   113  107  109 1   
   114  107  113 1   
   115  107  114 1   
   116  108  115 1   
   117  108  116 1   
   118  108  117 1   
   119  109  118 1   
   120  109  119 1   
   121  109  120 1   
   122  121  122 1   
   123  121  127 1   
   124  122  123 1   
   125  122  125 1   
   126  122  128 1   
   127  123  124 2   
   128  123  132 1   
   129  125  126 1   
   130  125  129 1   
   131  125  130 1   
   132  126  131 1   
   133  132  133 1   
   134  132  137 1   
   135  133  134 1   
   136  133  136 1   
   137  133  138 1   
   138  134  135 2   
   139  134  142 1   
   140  136  139 1   
   141  136  140 1   
   142  136  141 1   
   143  142  143 1   
   144  142  147 1   
   145  143  144 1   
   146  143  146 1   
   147  143  148 1   
   148  144  145 2   
   149  144  152 1   
   150  146  149 1   
   151  146  150 1   
   152  146  151 1   
   153  152  153 1   
   154  152  161 1   
   155  153  154 1   
   156  153  156 1   
   157  153  162 1   
   158  154  155 2   
   159  154  167 1   
   160  156  157 1   
   161  156  163 1   
   162  156  164 1   
   163  157  158 1   
   164  157  165 1   
   165  157  166 1   
   166  158  159 1   
   167  158  160 1   
   168  167  168 1   
   169  167  172 1   
   170  168  169 1   
   171  168  170 1   
   172  168  171 1   
   173  174  175 1   
   174  174  176 1   
   175  177  178 1   
   176  177  179 1   
@<TRIPOS>SUBSTRUCTURE
     1 MOL         1 TEMP              0 ****  ****    0 ROOT
