@<TRIPOS>MOLECULE
MOL
  189   185     1     0     0
SMALL
resp


@<TRIPOS>ATOM
      1 C1         -0.2020    0.4940    6.5990 c3        1 MOL     -0.291424
      2 C2         -0.5600    0.6730    5.0790 c         1 MOL      0.716719
      3 O1          0.0710    1.4060    4.3520 o         1 MOL     -0.621181
      4 H1         -1.1150    0.5300    7.1930 hc        1 MOL      0.075685
      5 H2          0.2900   -0.4680    6.7460 hc        1 MOL      0.075685
      6 H3          0.4670    1.2960    6.9120 hc        1 MOL      0.075685
      7 N1         -1.6480   -0.0210    4.6910 n         1 MOL     -0.617506
      8 C3         -2.2220    0.2730    3.4100 c3        1 MOL      0.296478
      9 C4         -2.7370    1.7000    3.2680 c         1 MOL      0.397806
     10 O2         -3.8560    1.9750    3.7150 o         1 MOL     -0.549730
     11 C5         -3.2350   -0.8010    2.9850 c3        1 MOL     -0.163471
     12 C6         -4.0210   -0.7170    1.6670 c         1 MOL      0.710522
     13 O3         -3.7620    0.1350    0.7810 o         1 MOL     -0.672031
     14 O4         -4.8310   -1.5970    1.4650 o         1 MOL     -0.672031
     15 H4         -2.2100   -0.5120    5.3590 hn        1 MOL      0.326598
     16 H5         -1.5950    0.1480    2.5320 h1        1 MOL     -0.088048
     17 H6         -3.9890   -0.9620    3.7480 hc        1 MOL      0.030337
     18 H7         -2.6540   -1.7230    2.9450 hc        1 MOL      0.030337
     19 N2         -1.9560    2.5700    2.6400 n         1 MOL     -0.228849
     20 C7         -2.0070    4.1050    2.6060 c3        1 MOL     -0.031406
     21 C8         -3.2080    4.6680    1.8210 c         1 MOL      0.500515
     22 O5         -3.5600    5.8210    1.8890 o         1 MOL     -0.571671
     23 C9         -0.6940    4.7510    2.2490 c3        1 MOL     -0.202705
     24 C10        -0.0620    4.6020    0.9140 c3        1 MOL      0.184536
     25 C11        -0.7410    5.4060   -0.1650 c3        1 MOL     -0.052308
     26 C12         0.0100    5.3010   -1.5140 c3        1 MOL      0.099112
     27 N3         -0.7640    5.8490   -2.6620 n4        1 MOL     -0.438968
     28 H8         -1.0870    2.1910    2.2910 hn        1 MOL      0.389372
     29 H9         -2.1450    4.4240    3.6470 h1        1 MOL      0.094937
     30 H10         0.0100    4.2470    2.9040 hc        1 MOL      0.071206
     31 H11        -0.7640    5.8120    2.4910 hc        1 MOL      0.071206
     32 H12         0.0190    3.5680    0.5690 hc        1 MOL     -0.032397
     33 H13         0.9250    5.0570    0.8520 hc        1 MOL     -0.032397
     34 H14        -0.8520    6.4710    0.0450 hc        1 MOL      0.034110
     35 H15        -1.7370    5.0190   -0.3800 hc        1 MOL      0.034110
     36 H16         0.2990    4.2860   -1.7850 hx        1 MOL      0.026427
     37 H17         0.9110    5.9160   -1.4220 hx        1 MOL      0.026427
     38 H18        -1.0600    6.8070   -2.5670 hn        1 MOL      0.326438
     39 H19        -0.2370    5.7650   -3.5220 hn        1 MOL      0.326438
     40 H20        -1.6170    5.3120   -2.6850 hn        1 MOL      0.326438
     41 N4         -3.7820    3.8080    1.0270 n         1 MOL     -0.262045
     42 C13        -4.8970    4.0760    0.1450 c3        1 MOL      0.024458
     43 C14        -6.0600    3.0810    0.0760 c         1 MOL      0.416541
     44 O6         -7.0160    3.3580   -0.5770 o         1 MOL     -0.481223
     45 C15        -4.4060    4.4410   -1.2590 c3        1 MOL     -0.228375
     46 C16        -3.3860    3.5720   -2.0510 c         1 MOL      0.920669
     47 O7         -3.0380    3.9620   -3.1880 o         1 MOL     -0.771755
     48 O8         -2.8050    2.6620   -1.4000 o         1 MOL     -0.771755
     49 H21        -3.3700    2.8910    1.0140 hn        1 MOL      0.066533
     50 H22        -5.3280    5.0000    0.5270 h1        1 MOL      0.127029
     51 H23        -4.0860    5.4850   -1.1840 hc        1 MOL      0.040592
     52 H24        -5.2850    4.6270   -1.8710 hc        1 MOL      0.040592
     53 N5         -6.0110    2.0790    0.9670 n         1 MOL     -0.238912
     54 C17        -7.0590    1.0540    1.0390 c3        1 MOL     -0.239278
     55 C18        -7.3180    0.2610   -0.2090 c         1 MOL      0.519810
     56 O9         -8.5030    0.0490   -0.5200 o         1 MOL     -0.590872
     57 H25        -5.1460    1.9000    1.4570 hn        1 MOL      0.207013
     58 H26        -7.9910    1.5510    1.2940 h1        1 MOL      0.134933
     59 H27        -6.6970    0.3840    1.8260 h1        1 MOL      0.134933
     60 N6         -6.3660   -0.2480   -0.9760 n         1 MOL     -0.169127
     61 C19        -6.6010   -0.9850   -2.2100 c3        1 MOL     -0.064106
     62 C20        -6.5310   -2.5310   -1.9600 c         1 MOL      0.395012
     63 O10        -6.7510   -3.2790   -2.9250 o         1 MOL     -0.528705
     64 C21        -5.5730   -0.5660   -3.2960 c3        1 MOL     -0.205715
     65 C22        -4.1110   -0.7030   -2.9290 c         1 MOL      0.775965
     66 O11        -3.2380    0.1020   -3.4220 o         1 MOL     -0.758977
     67 O12        -3.7750   -1.4690   -1.9910 o         1 MOL     -0.758977
     68 H28        -5.4230   -0.2470   -0.6270 hn        1 MOL      0.146492
     69 H29        -7.5820   -0.6390   -2.5430 h1        1 MOL      0.149097
     70 H30        -5.5990    0.5270   -3.3300 hc        1 MOL      0.068798
     71 H31        -5.8420   -0.9420   -4.2780 hc        1 MOL      0.068798
     72 N7         -6.3740   -3.0440   -0.7470 n         1 MOL     -0.247455
     73 C23        -6.1720   -4.4470   -0.3860 c3        1 MOL     -0.154389
     74 C24        -4.6980   -4.8820   -0.4500 c         1 MOL      0.514747
     75 O13        -4.3780   -6.0740   -0.3060 o         1 MOL     -0.580703
     76 H32        -6.3330   -2.4330    0.0470 hn        1 MOL      0.265827
     77 H33        -6.7610   -5.0400   -1.0920 h1        1 MOL      0.111376
     78 H34        -6.5540   -4.6360    0.6220 h1        1 MOL      0.111376
     79 N8         -3.7650   -4.0350   -0.8730 n         1 MOL     -0.203868
     80 C25        -2.3110   -4.3920   -0.9970 c3        1 MOL     -0.144913
     81 C26        -1.3050   -3.4780   -0.3590 c         1 MOL      0.711246
     82 O14        -1.4810   -2.2650   -0.2540 o         1 MOL     -0.632060
     83 C27        -2.0090   -4.7380   -2.4150 c3        1 MOL      0.419724
     84 C28        -2.8010   -5.8550   -3.0210 c3        1 MOL     -0.393869
     85 O15        -2.3150   -3.5580   -3.2390 oh        1 MOL     -0.647414
     86 H35        -3.9480   -3.1040   -1.2220 hn        1 MOL      0.225643
     87 H36        -2.1770   -5.3310   -0.4570 h1        1 MOL      0.078442
     88 H37        -0.9550   -4.9940   -2.5440 h1        1 MOL      0.024078
     89 H38        -3.2050   -3.2460   -3.0400 ho        1 MOL      0.398254
     90 H39        -3.8700   -5.6990   -2.8840 hc        1 MOL      0.103106
     91 H40        -2.5530   -5.8940   -4.0830 hc        1 MOL      0.103106
     92 H41        -2.5000   -6.8100   -2.5910 hc        1 MOL      0.103106
     93 N9         -0.1150   -4.0520    0.0950 n         1 MOL     -0.718384
     94 C29         0.9590   -3.3660    0.7970 c3        1 MOL      0.075390
     95 C30         2.1840   -3.5530   -0.1070 c         1 MOL      0.479500
     96 O16         2.5070   -4.7220   -0.4570 o         1 MOL     -0.541697
     97 C31         1.1430   -3.9530    2.2090 c3        1 MOL      0.091850
     98 C32         0.0280   -3.4440    3.0960 c3        1 MOL      0.089646
     99 C33         2.5130   -3.6630    2.8820 c3        1 MOL     -0.352990
    100 C34        -0.0200   -3.7770    4.5980 c3        1 MOL     -0.338480
    101 H42         0.0050   -5.0320   -0.1080 hn        1 MOL      0.339381
    102 H43         0.6970   -2.3080    0.8790 h1        1 MOL      0.123410
    103 H44         1.0160   -5.0300    2.1110 hc        1 MOL      0.021363
    104 H45        -0.9160   -3.7710    2.6720 hc        1 MOL      0.027175
    105 H46        -0.0500   -2.3670    3.0230 hc        1 MOL      0.027175
    106 H47         2.6490   -2.5870    2.7550 hc        1 MOL      0.085614
    107 H48         2.4800   -3.9360    3.9340 hc        1 MOL      0.085614
    108 H49         3.2590   -4.2250    2.3320 hc        1 MOL      0.085614
    109 H50         0.8850   -3.4460    5.1070 hc        1 MOL      0.085419
    110 H51        -0.9920   -3.4870    4.9810 hc        1 MOL      0.085419
    111 H52        -0.0410   -4.8690    4.6160 hc        1 MOL      0.085419
    112 N10         2.7140   -2.4210   -0.5940 n         1 MOL     -0.076340
    113 C35         3.8990   -2.3220   -1.4970 c3        1 MOL     -0.140451
    114 C36         5.1390   -2.2240   -0.6460 c         1 MOL      0.350096
    115 O17         5.0470   -2.1430    0.6060 o         1 MOL     -0.349932
    116 C37         3.8440   -1.1060   -2.4570 c3        1 MOL      0.319665
    117 C38         2.6870   -1.3020   -3.5000 c3        1 MOL     -0.402784
    118 O18         3.5470    0.0230   -1.7630 oh        1 MOL     -0.620617
    119 H53         2.2820   -1.5250   -0.4000 hn        1 MOL      0.148670
    120 H54         3.9130   -3.2090   -2.1320 h1        1 MOL      0.082185
    121 H55         4.7860   -1.0060   -3.0080 h1        1 MOL      0.024968
    122 H56         2.6150    0.0180   -1.5300 ho        1 MOL      0.434910
    123 H57         3.1200   -1.7520   -4.4050 hc        1 MOL      0.102508
    124 H58         1.8520   -1.9060   -3.1440 hc        1 MOL      0.102508
    125 H59         2.4600   -0.3100   -3.8880 hc        1 MOL      0.102508
    126 N11         6.3330   -2.3600   -1.2530 n         1 MOL     -0.320729
    127 C39         7.6280   -1.8750   -0.6010 c3        1 MOL     -0.189264
    128 C40         7.5580   -0.3880    0.0170 c         1 MOL      0.483061
    129 O19         8.2980   -0.1410    0.9940 o         1 MOL     -0.485806
    130 C41         8.7640   -1.8710   -1.6120 c3        1 MOL      0.197420
    131 C42         9.1980   -3.3380   -1.9710 c3        1 MOL     -0.337418
    132 O20         8.2600   -1.4220   -2.8810 oh        1 MOL     -0.671424
    133 H60         6.3450   -2.6300   -2.2220 hn        1 MOL      0.298195
    134 H61         7.8010   -2.5690    0.2150 h1        1 MOL      0.188043
    135 H62         9.5470   -1.2610   -1.1680 h1        1 MOL      0.089754
    136 H63         8.9840   -1.4120   -3.5120 ho        1 MOL      0.434354
    137 H64         8.4580   -3.8570   -2.5800 hc        1 MOL      0.104299
    138 H65        10.1110   -3.3680   -2.5660 hc        1 MOL      0.104299
    139 H66         9.3760   -3.9020   -1.0520 hc        1 MOL      0.104299
    140 N12         6.7370    0.5750   -0.4830 n         1 MOL     -0.296437
    141 C43         6.6580    1.9010    0.2290 c3        1 MOL     -0.086008
    142 C44         5.8490    1.8470    1.5400 c         1 MOL      0.372309
    143 O21         6.1700    2.5690    2.4880 o         1 MOL     -0.488957
    144 C45         6.1420    3.0690   -0.6760 c3        1 MOL     -0.076844
    145 C46         6.6650    2.9550   -2.1310 c3        1 MOL      0.020979
    146 C47         6.3590    4.2560   -3.0150 c3        1 MOL     -0.081329
    147 C48         6.4600    3.9100   -4.5520 c3        1 MOL      0.057656
    148 N13         6.2110    4.9980   -5.5150 n4        1 MOL     -0.238434
    149 H67         6.1580    0.4070   -1.2910 hn        1 MOL      0.235021
    150 H68         7.6800    2.1440    0.5170 h1        1 MOL      0.128203
    151 H69         6.4230    4.0470   -0.2720 hc        1 MOL      0.053289
    152 H70         5.0660    3.1860   -0.6390 hc        1 MOL      0.053289
    153 H71         6.0430    2.1820   -2.5750 hc        1 MOL      0.035152
    154 H72         7.7160    2.6530   -2.1680 hc        1 MOL      0.035152
    155 H73         7.1440    5.0040   -2.9100 hc        1 MOL      0.047263
    156 H74         5.3690    4.6110   -2.7600 hc        1 MOL      0.047263
    157 H75         5.6390    3.2080   -4.7000 hx        1 MOL      0.069302
    158 H76         7.3980    3.4280   -4.8220 hx        1 MOL      0.069302
    159 H77         6.3500    4.7130   -6.4780 hn        1 MOL      0.294603
    160 H78         5.2750    5.3700   -5.5770 hn        1 MOL      0.294603
    161 H79         6.7710    5.8350   -5.4240 hn        1 MOL      0.294603
    162 N14         4.8910    0.9070    1.6110 n         1 MOL     -0.049923
    163 C49         3.9390    0.7790    2.7030 c3        1 MOL     -0.198020
    164 C50         4.4380   -0.1560    3.6850 c         1 MOL      0.516577
    165 O22         4.1790   -0.0030    4.8680 o         1 MOL     -0.539319
    166 C51         2.6190    0.2800    2.1080 c3        1 MOL      0.288874
    167 C52         1.9230    1.2950    1.1780 c3        1 MOL     -0.235993
    168 C53         0.7530    0.7750    0.3380 c         1 MOL      0.845985
    169 O23        -0.3710    1.1060    0.7400 o         1 MOL     -0.794537
    170 O24         0.9130    0.1420   -0.7020 o         1 MOL     -0.794537
    171 H80         4.9030    0.1770    0.9140 hn        1 MOL      0.104992
    172 H81         3.7740    1.7410    3.1830 h1        1 MOL      0.142396
    173 H82         1.9360   -0.0740    2.8800 hc        1 MOL     -0.034365
    174 H83         2.8160   -0.6200    1.5300 hc        1 MOL     -0.034365
    175 H84         2.6430    1.5900    0.4180 hc        1 MOL     -0.001899
    176 H85         1.6840    2.1700    1.7880 hc        1 MOL     -0.001899
    177 N15         5.3310   -1.1230    3.3110 n         1 MOL     -0.153978
    178 C54         5.9480   -2.1660    4.1800 c3        1 MOL     -0.389118
    179 H86         6.8910   -1.7940    4.5800 h1        1 MOL      0.142602
    180 H87         5.2720   -2.4000    5.0030 h1        1 MOL      0.142602
    181 H88         6.1330   -3.0650    3.5940 h1        1 MOL      0.142602
    182 H89         5.4820   -1.1130    2.3130 hn        1 MOL      0.121223
    183 Ca1        -1.8310    0.1240   -1.1240 Ca        1 MOL      1.763453
    184 O25        -0.6850    1.9310   -3.2380 oh        1 MOL     -0.756408
    185 H90        -1.5040    2.4070   -3.0990 ho        1 MOL      0.365567
    186 H91        -0.2050    2.4740   -3.8610 ho        1 MOL      0.365567
    187 O26        -0.6450   -1.1950   -2.9880 oh        1 MOL     -0.756408
    188 H92        -0.4180   -0.6240   -3.7280 ho        1 MOL      0.365567
    189 H93        -1.2000   -1.8770   -3.3670 ho        1 MOL      0.365567
@<TRIPOS>BOND
     1    1    2 1   
     2    1    4 1   
     3    1    5 1   
     4    1    6 1   
     5    2    3 2   
     6    2    7 1   
     7    7    8 1   
     8    7   15 1   
     9    8    9 1   
    10    8   11 1   
    11    8   16 1   
    12    9   10 2   
    13    9   19 1   
    14   11   12 1   
    15   11   17 1   
    16   11   18 1   
    17   12   13 1   
    18   12   14 1   
    19   19   20 1   
    20   19   28 1   
    21   20   21 1   
    22   20   23 1   
    23   20   29 1   
    24   21   22 2   
    25   21   41 1   
    26   23   24 1   
    27   23   30 1   
    28   23   31 1   
    29   24   25 1   
    30   24   32 1   
    31   24   33 1   
    32   25   26 1   
    33   25   34 1   
    34   25   35 1   
    35   26   27 1   
    36   26   36 1   
    37   26   37 1   
    38   27   38 1   
    39   27   39 1   
    40   27   40 1   
    41   41   42 1   
    42   41   49 1   
    43   42   43 1   
    44   42   45 1   
    45   42   50 1   
    46   43   44 2   
    47   43   53 1   
    48   45   46 1   
    49   45   51 1   
    50   45   52 1   
    51   46   47 1   
    52   46   48 1   
    53   53   54 1   
    54   53   57 1   
    55   54   55 1   
    56   54   58 1   
    57   54   59 1   
    58   55   56 2   
    59   55   60 1   
    60   60   61 1   
    61   60   68 1   
    62   61   62 1   
    63   61   64 1   
    64   61   69 1   
    65   62   63 2   
    66   62   72 1   
    67   64   65 1   
    68   64   70 1   
    69   64   71 1   
    70   65   66 1   
    71   65   67 1   
    72   72   73 1   
    73   72   76 1   
    74   73   74 1   
    75   73   77 1   
    76   73   78 1   
    77   74   75 2   
    78   74   79 1   
    79   79   80 1   
    80   79   86 1   
    81   80   81 1   
    82   80   83 1   
    83   80   87 1   
    84   81   82 2   
    85   81   93 1   
    86   83   84 1   
    87   83   85 1   
    88   83   88 1   
    89   84   90 1   
    90   84   91 1   
    91   84   92 1   
    92   85   89 1   
    93   93   94 1   
    94   93  101 1   
    95   94   95 1   
    96   94   97 1   
    97   94  102 1   
    98   95   96 2   
    99   95  112 1   
   100   97   98 1   
   101   97   99 1   
   102   97  103 1   
   103   98  100 1   
   104   98  104 1   
   105   98  105 1   
   106   99  106 1   
   107   99  107 1   
   108   99  108 1   
   109  100  109 1   
   110  100  110 1   
   111  100  111 1   
   112  112  113 1   
   113  112  119 1   
   114  113  114 1   
   115  113  116 1   
   116  113  120 1   
   117  114  115 2   
   118  114  126 1   
   119  116  117 1   
   120  116  118 1   
   121  116  121 1   
   122  117  123 1   
   123  117  124 1   
   124  117  125 1   
   125  118  122 1   
   126  126  127 1   
   127  126  133 1   
   128  127  128 1   
   129  127  130 1   
   130  127  134 1   
   131  128  129 2   
   132  128  140 1   
   133  130  131 1   
   134  130  132 1   
   135  130  135 1   
   136  131  137 1   
   137  131  138 1   
   138  131  139 1   
   139  132  136 1   
   140  140  141 1   
   141  140  149 1   
   142  141  142 1   
   143  141  144 1   
   144  141  150 1   
   145  142  143 2   
   146  142  162 1   
   147  144  145 1   
   148  144  151 1   
   149  144  152 1   
   150  145  146 1   
   151  145  153 1   
   152  145  154 1   
   153  146  147 1   
   154  146  155 1   
   155  146  156 1   
   156  147  148 1   
   157  147  157 1   
   158  147  158 1   
   159  148  159 1   
   160  148  160 1   
   161  148  161 1   
   162  162  163 1   
   163  162  171 1   
   164  163  164 1   
   165  163  166 1   
   166  163  172 1   
   167  164  165 2   
   168  164  177 1   
   169  166  167 1   
   170  166  173 1   
   171  166  174 1   
   172  167  168 1   
   173  167  175 1   
   174  167  176 1   
   175  168  169 1   
   176  168  170 1   
   177  177  178 1   
   178  177  182 1   
   179  178  179 1   
   180  178  180 1   
   181  178  181 1   
   182  184  185 1   
   183  184  186 1   
   184  187  188 1   
   185  187  189 1   
@<TRIPOS>SUBSTRUCTURE
     1 MOL         1 TEMP              0 ****  ****    0 ROOT
