@<TRIPOS>MOLECULE
MOL
  175   173     1     0     0
SMALL
resp


@<TRIPOS>ATOM
      1 C1         -0.6650   -3.5210    5.6470 c3        1 MOL     -0.463957
      2 C2         -0.1750   -3.8640    4.1870 c         1 MOL      0.667738
      3 O1         -0.9300   -4.1160    3.2530 o         1 MOL     -0.512773
      4 H1          0.1990   -3.3210    6.2810 hc        1 MOL      0.113210
      5 H2         -1.3050   -2.6400    5.6190 hc        1 MOL      0.113210
      6 H3         -1.2240   -4.3660    6.0500 hc        1 MOL      0.113210
      7 N1          1.1500   -3.8240    4.1030 n         1 MOL     -0.547614
      8 C3          1.8780   -3.5750    2.8320 c3        1 MOL      0.088701
      9 C4          2.0400   -4.7320    1.7730 c         1 MOL      0.509123
     10 O2          2.4790   -5.8380    2.1700 o         1 MOL     -0.573669
     11 C5          3.2260   -2.9160    3.2140 c3        1 MOL     -0.266647
     12 C6          3.9810   -2.2340    2.0290 c         1 MOL      0.818111
     13 O3          5.1160   -1.7470    2.3090 o         1 MOL     -0.715676
     14 O4          3.4820   -2.0460    0.9010 o         1 MOL     -0.715676
     15 H4          1.7150   -3.7040    4.9320 hn        1 MOL      0.324773
     16 H5          1.3360   -2.7920    2.2900 h1        1 MOL      0.062247
     17 H6          3.9830   -3.5960    3.5950 hc        1 MOL      0.058786
     18 H7          3.2020   -2.1440    3.9790 hc        1 MOL      0.058786
     19 N2          1.7790   -4.4400    0.4750 n         1 MOL     -0.403503
     20 C7          1.9560   -5.4720   -0.5490 c3        1 MOL      0.321219
     21 C8          3.1390   -5.1380   -1.4690 c         1 MOL      0.301878
     22 O5          3.4630   -5.9170   -2.3660 o         1 MOL     -0.562422
     23 C9          0.7070   -5.3570   -1.4620 c3        1 MOL     -0.433659
     24 H8          1.4500   -3.5330    0.1820 hn        1 MOL      0.336704
     25 H9          2.1190   -6.4660   -0.1240 h1        1 MOL      0.023350
     26 H10         0.5220   -4.3450   -1.8410 hc        1 MOL      0.111898
     27 H11         0.8970   -6.0200   -2.3020 hc        1 MOL      0.111898
     28 H12        -0.0960   -5.6770   -0.8030 hc        1 MOL      0.111898
     29 N3          3.7290   -3.9600   -1.4070 n         1 MOL     -0.164260
     30 C10         4.7830   -3.5620   -2.4440 c3        1 MOL      0.039397
     31 C11         6.0330   -2.8400   -1.9460 c         1 MOL      0.337063
     32 O6          6.9770   -2.7390   -2.7380 o         1 MOL     -0.521555
     33 C12         4.0760   -2.7460   -3.4860 c3        1 MOL     -0.154377
     34 C13         3.3650   -1.4840   -2.9310 c         1 MOL      0.631698
     35 O7          2.6150   -0.9220   -3.7400 o         1 MOL     -0.661811
     36 O8          3.7290   -0.9250   -1.8800 o         1 MOL     -0.661811
     37 H13         3.5280   -3.3710   -0.6080 hn        1 MOL      0.084767
     38 H14         5.1700   -4.4410   -2.9700 h1        1 MOL      0.105163
     39 H15         3.4800   -3.4800   -4.0330 hc        1 MOL      0.053074
     40 H16         4.8290   -2.3130   -4.1430 hc        1 MOL      0.053074
     41 N4          6.0500   -2.3300   -0.6880 n         1 MOL     -0.186292
     42 C14         7.2200   -1.6120   -0.1230 c3        1 MOL     -0.335631
     43 C15         7.2730   -0.1100   -0.6130 c         1 MOL      0.525956
     44 O9          8.3480    0.5330   -0.5290 o         1 MOL     -0.599268
     45 H17         5.1820   -2.3560   -0.1730 hn        1 MOL      0.168635
     46 H18         8.1090   -2.0490   -0.5850 h1        1 MOL      0.156771
     47 H19         7.2800   -1.6610    0.9680 h1        1 MOL      0.156771
     48 N5          6.1740    0.3840   -1.3140 n         1 MOL     -0.321805
     49 C16         6.0670    1.6650   -2.0460 c3        1 MOL     -0.009179
     50 C17         6.1020    2.9680   -1.2470 c         1 MOL      0.354922
     51 O10         5.8850    4.0560   -1.8290 o         1 MOL     -0.481626
     52 C18         4.8840    1.6780   -3.0320 c3        1 MOL     -0.327620
     53 C19         3.5010    1.9770   -2.5220 c         1 MOL      0.870445
     54 N6          2.6410    2.2470   -3.4720 n         1 MOL     -0.764424
     55 O11         3.3210    2.0030   -1.3450 o         1 MOL     -0.688454
     56 H20         5.3140   -0.1440   -1.2770 hn        1 MOL      0.402421
     57 H21         6.9540    1.6960   -2.6720 h1        1 MOL      0.115552
     58 H22         4.9380    0.6890   -3.4840 hc        1 MOL      0.078131
     59 H23         5.1120    2.4110   -3.8020 hc        1 MOL      0.078131
     60 H24         2.8790    2.0320   -4.4290 hn        1 MOL      0.372097
     61 H25         1.6720    2.3460   -3.1820 hn        1 MOL      0.372097
     62 N7          6.3330    2.9020    0.0700 n         1 MOL     -0.130299
     63 C20         6.3260    3.9820    0.9980 c3        1 MOL     -0.310377
     64 C21         4.9450    4.5250    1.3040 c         1 MOL      0.582831
     65 O12         4.8880    5.5840    2.0290 o         1 MOL     -0.593033
     66 H26         6.4230    1.9820    0.5010 hn        1 MOL      0.203707
     67 H27         6.9110    4.6890    0.3950 h1        1 MOL      0.137091
     68 H28         6.8240    3.6980    1.9260 h1        1 MOL      0.137091
     69 N8          3.7720    3.9290    0.9550 n         1 MOL     -0.184335
     70 C22         2.4840    4.6530    1.1110 c3        1 MOL     -0.310378
     71 C23         1.4560    3.5680    1.3720 c         1 MOL      0.738679
     72 O13         1.6690    2.3960    1.0060 o         1 MOL     -0.500460
     73 C24         2.0970    5.5040   -0.1180 c3        1 MOL      0.529385
     74 C25         2.8950    6.8000   -0.1080 c3        1 MOL     -0.533650
     75 O14         2.4410    4.8820   -1.3070 oh        1 MOL     -0.549269
     76 H29         3.7960    3.0740    0.4130 hn        1 MOL      0.025547
     77 H30         2.5370    5.3130    1.9770 h1        1 MOL      0.126555
     78 H31         1.0040    5.6160   -0.1110 h1        1 MOL     -0.021520
     79 H32         2.4000    3.9330   -1.1640 ho        1 MOL      0.298555
     80 H33         3.9090    6.6660   -0.4910 hc        1 MOL      0.133001
     81 H34         2.4050    7.5380   -0.7530 hc        1 MOL      0.133001
     82 H35         2.9280    7.2590    0.8740 hc        1 MOL      0.133001
     83 N9          0.3460    3.9500    2.0200 n         1 MOL     -0.690083
     84 C26        -0.7970    3.0490    2.0370 c3        1 MOL     -0.104134
     85 C27        -1.5570    3.1710    0.6890 c         1 MOL      0.507618
     86 O15        -1.9870    4.2990    0.3100 o         1 MOL     -0.590336
     87 C28        -1.8390    3.2370    3.1790 c3        1 MOL      0.287784
     88 C29        -1.1110    3.6720    4.5020 c3        1 MOL      0.119812
     89 C30        -2.7210    2.0200    3.3860 c3        1 MOL     -0.230210
     90 C31        -2.1190    3.9690    5.5910 c3        1 MOL     -0.267661
     91 H36         0.2490    4.9070    2.3110 hn        1 MOL      0.339181
     92 H37        -0.3270    2.0650    2.0460 h1        1 MOL      0.164054
     93 H38        -2.5810    3.9900    2.9520 hc        1 MOL     -0.035193
     94 H39        -0.4630    4.5370    4.3570 hc        1 MOL     -0.025828
     95 H40        -0.4650    2.8280    4.7150 hc        1 MOL     -0.025828
     96 H41        -3.6010    2.0770    2.7470 hc        1 MOL      0.041083
     97 H42        -2.0780    1.1360    3.3830 hc        1 MOL      0.041083
     98 H43        -3.1810    2.0100    4.3800 hc        1 MOL      0.041083
     99 H44        -1.6290    4.7200    6.2200 hc        1 MOL      0.053771
    100 H45        -3.0260    4.3830    5.1560 hc        1 MOL      0.053771
    101 H46        -2.4260    3.1500    6.2370 hc        1 MOL      0.053771
    102 N10        -1.6450    2.0940   -0.0730 n         1 MOL     -0.204301
    103 C32        -2.4370    1.9250   -1.2930 c3        1 MOL      0.071310
    104 C33        -3.8490    1.4460   -0.8940 c         1 MOL      0.451240
    105 O16        -4.0960    0.8610    0.1690 o         1 MOL     -0.393404
    106 C34        -1.7170    0.8900   -2.1820 c3        1 MOL     -0.400673
    107 C35        -0.2580    1.3170   -2.5710 c         1 MOL      0.785156
    108 O17        -0.0300    2.0250   -3.5500 o         1 MOL     -0.671970
    109 O18         0.6250    0.8600   -1.8080 o         1 MOL     -0.671970
    110 H47        -1.2610    1.2350    0.2880 hn        1 MOL      0.108365
    111 H48        -2.5120    2.8910   -1.8000 h1        1 MOL      0.075621
    112 H49        -2.3130    0.7970   -3.0860 hc        1 MOL      0.114266
    113 H50        -1.6490   -0.0650   -1.6560 hc        1 MOL      0.114266
    114 N11        -4.8020    1.6210   -1.8260 n         1 MOL     -0.653930
    115 C36        -6.1990    1.2960   -1.5680 c3        1 MOL      0.500156
    116 C37        -6.5080   -0.1450   -1.1440 c         1 MOL      0.266703
    117 O19        -7.1230   -0.3380   -0.1260 o         1 MOL     -0.478176
    118 C38        -7.1400    1.9600   -2.5240 c3        1 MOL     -0.319824
    119 C39        -8.6040    1.9020   -2.2250 ca        1 MOL      0.279273
    120 C40        -9.4590    0.9960   -2.8460 ca        1 MOL     -0.317641
    121 C41        -9.0760    2.8000   -1.2620 ca        1 MOL     -0.317641
    122 C42       -10.7030    0.7410   -2.2840 ca        1 MOL      0.009802
    123 C43       -10.3750    2.6250   -0.7950 ca        1 MOL      0.009802
    124 C44       -11.2130    1.6260   -1.2510 ca        1 MOL     -0.212776
    125 H51        -4.5720    1.9640   -2.7470 hn        1 MOL      0.333837
    126 H52        -6.3800    1.7700   -0.6020 h1        1 MOL      0.018814
    127 H53        -6.9620    1.4730   -3.4900 hc        1 MOL      0.070822
    128 H54        -6.8350    3.0010   -2.6540 hc        1 MOL      0.070822
    129 H55        -9.0920    0.3390   -3.6250 ha        1 MOL      0.159618
    130 H56        -8.4590    3.6030   -0.8850 ha        1 MOL      0.159618
    131 H57       -11.3470   -0.0060   -2.7210 ha        1 MOL      0.084883
    132 H58       -10.7630    3.3290   -0.0840 ha        1 MOL      0.084883
    133 H59       -12.2290    1.6720   -0.8770 ha        1 MOL      0.119666
    134 N12        -6.1570   -1.2330   -1.9070 n         1 MOL     -0.153770
    135 C45        -6.3300   -2.6250   -1.4400 c3        1 MOL      0.067557
    136 C46        -5.5450   -2.9500   -0.1750 c         1 MOL      0.244945
    137 O20        -5.7260   -4.0550    0.3650 o         1 MOL     -0.510886
    138 C47        -5.7670   -3.4840   -2.5940 c3        1 MOL     -0.223452
    139 C48        -5.9100   -2.5320   -3.8210 c3        1 MOL      0.052460
    140 C49        -5.6250   -1.1990   -3.2430 c3        1 MOL      0.063903
    141 H60        -7.3760   -2.8860   -1.3200 h1        1 MOL      0.086395
    142 H61        -4.7010   -3.6610   -2.4530 hc        1 MOL      0.098878
    143 H62        -6.3620   -4.3870   -2.7240 hc        1 MOL      0.098878
    144 H63        -5.1940   -2.8110   -4.5980 hc        1 MOL      0.001314
    145 H64        -6.9150   -2.4950   -4.2330 hc        1 MOL      0.001314
    146 H65        -4.5560   -1.0010   -3.1910 h1        1 MOL     -0.003024
    147 H66        -6.0590   -0.4190   -3.8690 h1        1 MOL     -0.003024
    148 N13        -4.6600   -2.0930    0.3330 n         1 MOL     -0.004886
    149 C50        -4.0530   -2.2760    1.6290 c3        1 MOL     -0.036456
    150 C51        -4.9250   -1.5840    2.7250 c         1 MOL      0.502339
    151 O21        -5.1220   -2.2650    3.7430 o         1 MOL     -0.567996
    152 C52        -2.6050   -1.7080    1.6650 c3        1 MOL     -0.113012
    153 C53        -1.7050   -2.2250    0.4970 c3        1 MOL      0.043930
    154 C54        -0.3440   -1.4990    0.3140 c         1 MOL      0.642713
    155 O22         0.6290   -2.0130   -0.2130 o         1 MOL     -0.710857
    156 O23        -0.2050   -0.3980    0.8840 o         1 MOL     -0.710857
    157 H67        -4.5720   -1.1700   -0.0670 hn        1 MOL      0.151455
    158 H68        -4.0920   -3.3120    1.9560 h1        1 MOL      0.091203
    159 H69        -2.2510   -1.9160    2.6750 hc        1 MOL      0.033702
    160 H70        -2.6390   -0.6250    1.5390 hc        1 MOL      0.033702
    161 H71        -2.2080   -2.2450   -0.4830 hc        1 MOL     -0.015394
    162 H72        -1.3390   -3.2070    0.7720 hc        1 MOL     -0.015394
    163 N14        -5.4780   -0.3920    2.4820 n         1 MOL     -0.223097
    164 C55        -6.5950    0.1510    3.3090 c3        1 MOL     -0.078946
    165 H73        -6.1900    0.5880    4.2230 h1        1 MOL      0.055590
    166 H74        -7.1260    0.9180    2.7450 h1        1 MOL      0.055590
    167 H75        -7.2820   -0.6550    3.5660 h1        1 MOL      0.055590
    168 H76        -5.1750   -0.0310    1.5940 hn        1 MOL      0.171973
    169 Ca1         2.2190    0.0180    0.0220 Ca        1 MOL      1.696194
    170 O24         1.7080    0.1130    2.7160 oh        1 MOL     -0.802039
    171 H77         0.9040   -0.4140    2.6850 ho        1 MOL      0.392708
    172 H78         1.8740    0.2390    3.6400 ho        1 MOL      0.392708
    173 O25         4.6720    0.6560    1.4360 oh        1 MOL     -0.802039
    174 H79         5.2180    1.1600    2.0400 ho        1 MOL      0.392708
    175 H80         4.8850   -0.2580    1.6420 ho        1 MOL      0.392708
@<TRIPOS>BOND
     1    1    2 1   
     2    1    4 1   
     3    1    5 1   
     4    1    6 1   
     5    2    3 2   
     6    2    7 1   
     7    7    8 1   
     8    7   15 1   
     9    8    9 1   
    10    8   11 1   
    11    8   16 1   
    12    9   10 2   
    13    9   19 1   
    14   11   12 1   
    15   11   17 1   
    16   11   18 1   
    17   12   13 1   
    18   12   14 1   
    19   19   20 1   
    20   19   24 1   
    21   20   21 1   
    22   20   23 1   
    23   20   25 1   
    24   21   22 2   
    25   21   29 1   
    26   23   26 1   
    27   23   27 1   
    28   23   28 1   
    29   29   30 1   
    30   29   37 1   
    31   30   31 1   
    32   30   33 1   
    33   30   38 1   
    34   31   32 2   
    35   31   41 1   
    36   33   34 1   
    37   33   39 1   
    38   33   40 1   
    39   34   35 1   
    40   34   36 1   
    41   41   42 1   
    42   41   45 1   
    43   42   43 1   
    44   42   46 1   
    45   42   47 1   
    46   43   44 2   
    47   43   48 1   
    48   48   49 1   
    49   48   56 1   
    50   49   50 1   
    51   49   52 1   
    52   49   57 1   
    53   50   51 2   
    54   50   62 1   
    55   52   53 1   
    56   52   58 1   
    57   52   59 1   
    58   53   54 1   
    59   53   55 2   
    60   54   60 1   
    61   54   61 1   
    62   62   63 1   
    63   62   66 1   
    64   63   64 1   
    65   63   67 1   
    66   63   68 1   
    67   64   65 2   
    68   64   69 1   
    69   69   70 1   
    70   69   76 1   
    71   70   71 1   
    72   70   73 1   
    73   70   77 1   
    74   71   72 2   
    75   71   83 1   
    76   73   74 1   
    77   73   75 1   
    78   73   78 1   
    79   74   80 1   
    80   74   81 1   
    81   74   82 1   
    82   75   79 1   
    83   83   84 1   
    84   83   91 1   
    85   84   85 1   
    86   84   87 1   
    87   84   92 1   
    88   85   86 2   
    89   85  102 1   
    90   87   88 1   
    91   87   89 1   
    92   87   93 1   
    93   88   90 1   
    94   88   94 1   
    95   88   95 1   
    96   89   96 1   
    97   89   97 1   
    98   89   98 1   
    99   90   99 1   
   100   90  100 1   
   101   90  101 1   
   102  102  103 1   
   103  102  110 1   
   104  103  104 1   
   105  103  106 1   
   106  103  111 1   
   107  104  105 2   
   108  104  114 1   
   109  106  107 1   
   110  106  112 1   
   111  106  113 1   
   112  107  108 1   
   113  107  109 1   
   114  114  115 1   
   115  114  125 1   
   116  115  116 1   
   117  115  118 1   
   118  115  126 1   
   119  116  117 2   
   120  116  134 1   
   121  118  119 1   
   122  118  127 1   
   123  118  128 1   
   124  119  120 ar  
   125  119  121 ar  
   126  120  122 ar  
   127  120  129 1   
   128  121  123 ar  
   129  121  130 1   
   130  122  124 ar  
   131  122  131 1   
   132  123  124 ar  
   133  123  132 1   
   134  124  133 1   
   135  134  135 1   
   136  134  140 1   
   137  135  136 1   
   138  135  138 1   
   139  135  141 1   
   140  136  137 2   
   141  136  148 1   
   142  138  139 1   
   143  138  142 1   
   144  138  143 1   
   145  139  140 1   
   146  139  144 1   
   147  139  145 1   
   148  140  146 1   
   149  140  147 1   
   150  148  149 1   
   151  148  157 1   
   152  149  150 1   
   153  149  152 1   
   154  149  158 1   
   155  150  151 2   
   156  150  163 1   
   157  152  153 1   
   158  152  159 1   
   159  152  160 1   
   160  153  154 1   
   161  153  161 1   
   162  153  162 1   
   163  154  155 1   
   164  154  156 1   
   165  163  164 1   
   166  163  168 1   
   167  164  165 1   
   168  164  166 1   
   169  164  167 1   
   170  170  171 1   
   171  170  172 1   
   172  173  174 1   
   173  173  175 1   
@<TRIPOS>SUBSTRUCTURE
     1 MOL         1 TEMP              0 ****  ****    0 ROOT
