@<TRIPOS>MOLECULE
MOL
  175   173     1     0     0
SMALL
resp


@<TRIPOS>ATOM
      1 C1          0.6540    3.7120    5.3770 c3        1 MOL     -0.251003
      2 C2          0.0830    3.9070    4.0130 c         1 MOL      0.749720
      3 O1          0.7590    4.3370    3.1150 o         1 MOL     -0.556331
      4 H1          0.0730    4.2870    6.0990 hc        1 MOL      0.052184
      5 H2          0.6160    2.6550    5.6400 hc        1 MOL      0.052184
      6 H3          1.6880    4.0540    5.3900 hc        1 MOL      0.052184
      7 N1         -1.2120    3.5180    3.8260 n         1 MOL     -0.697769
      8 C3         -1.9340    3.4310    2.5920 c3        1 MOL      0.192804
      9 C4         -2.0270    4.7450    1.7270 c         1 MOL      0.608624
     10 O2         -2.2130    5.8260    2.2760 o         1 MOL     -0.587007
     11 C5         -3.3880    3.0040    2.9480 c3        1 MOL     -0.397357
     12 C6         -4.1640    2.4390    1.7160 c         1 MOL      0.846758
     13 O3         -3.6130    2.2020    0.6140 o         1 MOL     -0.711898
     14 O4         -5.4090    2.3340    1.8200 o         1 MOL     -0.711898
     15 H4         -1.7660    3.2370    4.6270 hn        1 MOL      0.330287
     16 H5         -1.4500    2.5930    2.0980 h1        1 MOL      0.118934
     17 H6         -4.0250    3.8020    3.3140 hc        1 MOL      0.076249
     18 H7         -3.2800    2.1860    3.6610 hc        1 MOL      0.076249
     19 N2         -2.0880    4.6530    0.4290 n         1 MOL     -0.601516
     20 C7         -2.6200    5.6650   -0.4950 c3        1 MOL      0.488192
     21 C8         -3.3640    5.0990   -1.7450 c         1 MOL      0.505936
     22 O5         -3.4760    5.8450   -2.7120 o         1 MOL     -0.573205
     23 C9         -1.4680    6.5630   -0.8910 c3        1 MOL     -0.344134
     24 H8         -1.9260    3.7580    0.0020 hn        1 MOL      0.333755
     25 H9         -3.3500    6.3710   -0.0890 h1        1 MOL     -0.031393
     26 H10        -1.8540    7.4620   -1.3640 hc        1 MOL      0.069423
     27 H11        -0.9760    6.9320    0.0090 hc        1 MOL      0.069423
     28 H12        -0.9040    5.9740   -1.6170 hc        1 MOL      0.069423
     29 N3         -4.0450    3.9420   -1.6370 n         1 MOL     -0.460156
     30 C10        -4.8620    3.3920   -2.6940 c3        1 MOL      0.267930
     31 C11        -6.1710    2.6760   -2.1600 c         1 MOL      0.306798
     32 O6         -7.0680    2.5090   -2.9350 o         1 MOL     -0.557423
     33 C12        -4.1200    2.4410   -3.6080 c3        1 MOL     -0.248781
     34 C13        -3.3740    1.3600   -2.8690 c         1 MOL      0.728985
     35 O7         -2.2230    1.0930   -3.1950 o         1 MOL     -0.685409
     36 O8         -3.8900    0.7580   -1.8940 o         1 MOL     -0.685409
     37 H13        -4.1300    3.5210   -0.7180 hn        1 MOL      0.160036
     38 H14        -5.1860    4.2170   -3.3270 h1        1 MOL      0.024699
     39 H15        -3.4650    3.0450   -4.2240 hc        1 MOL      0.063409
     40 H16        -4.8390    1.9260   -4.2490 hc        1 MOL      0.063409
     41 N4         -6.2500    2.0680   -1.0000 n         1 MOL     -0.040914
     42 C14        -7.4350    1.3030   -0.4860 c3        1 MOL     -0.245758
     43 C15        -7.4460   -0.1910   -0.7840 c         1 MOL      0.506425
     44 O9         -8.4170   -0.9130   -0.4590 o         1 MOL     -0.616535
     45 H17        -5.3340    1.8010   -0.6660 hn        1 MOL      0.049542
     46 H18        -8.3820    1.7220   -0.8220 h1        1 MOL      0.133595
     47 H19        -7.4600    1.4370    0.5980 h1        1 MOL      0.133595
     48 N5         -6.4440   -0.7910   -1.4480 n         1 MOL     -0.200787
     49 C16        -6.3260   -2.1290   -1.9600 c3        1 MOL     -0.048101
     50 C17        -6.2500   -3.2550   -0.9880 c         1 MOL      0.454437
     51 O10        -6.2760   -4.4220   -1.3910 o         1 MOL     -0.556116
     52 C18        -5.2170   -2.0600   -3.0240 c3        1 MOL     -0.284989
     53 C19        -3.8390   -2.1640   -2.4070 c         1 MOL      0.566512
     54 N6         -2.9500   -2.5140   -3.2390 n         1 MOL     -0.560058
     55 O11        -3.5310   -2.0310   -1.2520 o         1 MOL     -0.422964
     56 H20        -5.5730   -0.2820   -1.4940 hn        1 MOL      0.208938
     57 H21        -7.2840   -2.3090   -2.4370 h1        1 MOL      0.109021
     58 H22        -5.2590   -1.1460   -3.6170 hc        1 MOL      0.096714
     59 H23        -5.3110   -2.9380   -3.6710 hc        1 MOL      0.096714
     60 H24        -3.1330   -2.6510   -4.2270 hn        1 MOL      0.307633
     61 H25        -2.0540   -2.8070   -2.8970 hn        1 MOL      0.307633
     62 N7         -6.1000   -3.0040    0.3020 n         1 MOL     -0.073909
     63 C20        -6.1190   -3.9920    1.3760 c3        1 MOL     -0.434528
     64 C21        -4.7690   -4.6470    1.5930 c         1 MOL      0.628211
     65 O12        -4.6300   -5.4720    2.4410 o         1 MOL     -0.569032
     66 H26        -6.0480   -2.0570    0.6240 hn        1 MOL      0.194764
     67 H27        -6.8680   -4.7140    1.0340 h1        1 MOL      0.158977
     68 H28        -6.3650   -3.4250    2.2730 h1        1 MOL      0.158977
     69 N8         -3.7070   -4.0990    0.9990 n         1 MOL     -0.059527
     70 C22        -2.3490   -4.6010    1.1820 c3        1 MOL     -0.489334
     71 C23        -1.3730   -3.4460    1.2440 c         1 MOL      0.712609
     72 O13        -1.5770   -2.4740    0.5000 o         1 MOL     -0.665642
     73 C24        -1.9240   -5.6050    0.1380 c3        1 MOL      0.538480
     74 C25        -2.7190   -6.8940    0.3100 c3        1 MOL     -0.521109
     75 O14        -2.1530   -5.1080   -1.1410 oh        1 MOL     -0.600476
     76 H29        -3.9450   -3.3580    0.3570 hn        1 MOL      0.053813
     77 H30        -2.1330   -5.1200    2.1130 h1        1 MOL      0.150650
     78 H31        -0.8720   -5.8590    0.0950 h1        1 MOL      0.030077
     79 H32        -2.8570   -4.4620   -1.1030 ho        1 MOL      0.347513
     80 H33        -2.2370   -7.6570   -0.2900 hc        1 MOL      0.124402
     81 H34        -2.6400   -7.1830    1.3610 hc        1 MOL      0.124402
     82 H35        -3.7570   -6.8110   -0.0160 hc        1 MOL      0.124402
     83 N9         -0.3010   -3.5470    2.1030 n         1 MOL     -0.552708
     84 C26         0.9270   -2.7290    2.0590 c3        1 MOL     -0.041759
     85 C27         1.7900   -3.0520    0.8790 c         1 MOL      0.575319
     86 O15         2.5050   -4.0510    0.7990 o         1 MOL     -0.583103
     87 C28         1.7050   -2.9630    3.3920 c3        1 MOL      0.040739
     88 C29         0.8590   -2.5590    4.5770 c3        1 MOL      0.056501
     89 C30         3.0120   -2.1280    3.2780 c3        1 MOL     -0.071511
     90 C31         1.6140   -2.8720    5.8830 c3        1 MOL     -0.149370
     91 H36        -0.2940   -4.3300    2.7350 hn        1 MOL      0.286622
     92 H37         0.6600   -1.6720    2.1370 h1        1 MOL      0.073112
     93 H38         1.9410   -4.0240    3.4980 hc        1 MOL      0.021985
     94 H39        -0.0490   -3.1730    4.5730 hc        1 MOL     -0.008871
     95 H40         0.2980   -1.6310    4.4510 hc        1 MOL     -0.008871
     96 H41         2.7210   -1.0990    3.5080 hc        1 MOL      0.010401
     97 H42         3.7260   -2.4620    4.0290 hc        1 MOL      0.010401
     98 H43         3.5630   -2.2100    2.3440 hc        1 MOL      0.010401
     99 H44         2.4980   -2.2730    6.0730 hc        1 MOL      0.032943
    100 H45         1.0100   -2.7660    6.7830 hc        1 MOL      0.032943
    101 H46         1.8660   -3.9350    5.8870 hc        1 MOL      0.032943
    102 N10         1.7040   -2.1080   -0.0890 n         1 MOL     -0.251924
    103 C32         2.6280   -1.9310   -1.1810 c3        1 MOL      0.004130
    104 C33         4.0610   -1.4220   -0.8560 c         1 MOL      0.283340
    105 O16         4.2420   -0.7800    0.2050 o         1 MOL     -0.192441
    106 C34         1.9900   -0.9550   -2.2170 c3        1 MOL     -0.264353
    107 C35         0.5440   -1.3920   -2.5380 c         1 MOL      0.716544
    108 O17        -0.4900   -1.0880   -1.8710 o         1 MOL     -0.681477
    109 O18         0.4680   -2.0430   -3.6090 o         1 MOL     -0.681477
    110 H47         1.1510   -1.3210    0.2120 hn        1 MOL      0.272106
    111 H48         2.6050   -2.8780   -1.7010 h1        1 MOL      0.070992
    112 H49         2.6010   -1.0500   -3.1120 hc        1 MOL      0.080646
    113 H50         2.0020    0.1060   -1.9820 hc        1 MOL      0.080646
    114 N11         4.9740   -1.7340   -1.7540 n         1 MOL     -0.478630
    115 C36         6.4190   -1.4850   -1.5160 c3        1 MOL      0.201686
    116 C37         6.7710    0.0480   -1.1750 c         1 MOL      0.380525
    117 O19         7.4440    0.2720   -0.1260 o         1 MOL     -0.502632
    118 C38         7.3160   -1.9820   -2.6190 c3        1 MOL     -0.113595
    119 C39         8.8050   -1.7760   -2.3270 ca        1 MOL     -0.007101
    120 C40         9.5160   -2.4960   -1.3580 ca        1 MOL     -0.110875
    121 C41         9.4780   -0.7370   -3.0050 ca        1 MOL     -0.110875
    122 C42        10.8440   -2.1750   -1.0100 ca        1 MOL     -0.157530
    123 C43        10.8620   -0.4900   -2.7890 ca        1 MOL     -0.157530
    124 C44        11.4710   -1.1240   -1.7220 ca        1 MOL     -0.050083
    125 H51         4.6940   -2.3150   -2.5260 hn        1 MOL      0.327022
    126 H52         6.7940   -1.9730   -0.6220 h1        1 MOL      0.069929
    127 H53         7.0560   -1.6560   -3.6270 hc        1 MOL      0.051112
    128 H54         7.2230   -3.0700   -2.6450 hc        1 MOL      0.051112
    129 H55         9.0660   -3.3740   -0.9260 ha        1 MOL      0.108913
    130 H56         8.9610   -0.0550   -3.6570 ha        1 MOL      0.108913
    131 H57        11.3900   -2.7540   -0.2920 ha        1 MOL      0.122862
    132 H58        11.3600    0.2960   -3.3320 ha        1 MOL      0.122862
    133 H59        12.4560   -0.7700   -1.4720 ha        1 MOL      0.084365
    134 N12         6.2640    1.0830   -1.7960 n         1 MOL     -0.064617
    135 C45         6.3660    2.4730   -1.4180 c3        1 MOL     -0.010759
    136 C46         5.6880    2.8190   -0.0460 c         1 MOL      0.251544
    137 O20         6.0310    3.8360    0.6000 o         1 MOL     -0.511333
    138 C47         5.6910    3.3050   -2.4900 c3        1 MOL     -0.089857
    139 C48         4.8500    2.2120   -3.2630 c3        1 MOL      0.005245
    140 C49         5.6060    0.9600   -3.0880 c3        1 MOL     -0.044804
    141 H60         7.4280    2.6940   -1.3490 h1        1 MOL      0.086214
    142 H61         4.9800    4.0660   -2.1890 hc        1 MOL      0.054157
    143 H62         6.4490    3.8310   -3.0670 hc        1 MOL      0.054157
    144 H63         3.8800    2.1820   -2.7830 hc        1 MOL      0.031932
    145 H64         4.6570    2.6150   -4.2560 hc        1 MOL      0.031932
    146 H65         4.8750    0.1790   -3.2560 h1        1 MOL      0.023034
    147 H66         6.2760    0.9650   -3.9490 h1        1 MOL      0.023034
    148 N13         4.7920    1.9840    0.4270 n         1 MOL     -0.037150
    149 C50         4.0390    2.0780    1.6990 c3        1 MOL     -0.160461
    150 C51         4.8640    1.4220    2.7670 c         1 MOL      0.480362
    151 O21         4.9890    1.7890    3.9390 o         1 MOL     -0.582908
    152 C52         2.6370    1.5850    1.5120 c3        1 MOL      0.186481
    153 C53         1.8660    2.1370    0.3330 c3        1 MOL     -0.078700
    154 C54         0.4590    1.5710    0.4550 c         1 MOL      0.496176
    155 O22        -0.4500    2.1010   -0.2080 o         1 MOL     -0.694761
    156 O23         0.2080    0.5080    1.0260 o         1 MOL     -0.694761
    157 H67         4.6910    1.1110   -0.0690 hn        1 MOL      0.104842
    158 H68         3.9360    3.1450    1.8800 h1        1 MOL      0.113628
    159 H69         2.1790    1.9070    2.4380 hc        1 MOL     -0.030535
    160 H70         2.6870    0.5010    1.3610 hc        1 MOL     -0.030535
    161 H71         2.3250    1.9310   -0.6350 hc        1 MOL      0.055417
    162 H72         1.8090    3.2220    0.3980 hc        1 MOL      0.055417
    163 N14         5.5380    0.3030    2.4600 n         1 MOL     -0.015038
    164 C55         6.4790   -0.4100    3.3380 c3        1 MOL     -0.190736
    165 H73         7.3960   -0.6240    2.7890 h1        1 MOL      0.073235
    166 H74         6.7100    0.2090    4.2040 h1        1 MOL      0.073235
    167 H75         6.0280   -1.3460    3.6700 h1        1 MOL      0.073235
    168 H76         5.3110   -0.0570    1.5430 hn        1 MOL     -0.001558
    169 Ca1        -2.1680   -0.0140   -0.1970 Ca        1 MOL      1.732227
    170 O24        -4.6780   -0.3710    1.2740 oh        1 MOL     -0.765884
    171 H77        -5.0720    0.4740    1.4890 ho        1 MOL      0.371079
    172 H78        -4.6620   -0.8460    2.1040 ho        1 MOL      0.371079
    173 O25        -1.5850    0.0320    2.6540 oh        1 MOL     -0.765884
    174 H79        -0.7000    0.3020    2.4170 ho        1 MOL      0.371079
    175 H80        -1.6090    0.0880    3.6070 ho        1 MOL      0.371079
@<TRIPOS>BOND
     1    1    2 1   
     2    1    4 1   
     3    1    5 1   
     4    1    6 1   
     5    2    3 2   
     6    2    7 1   
     7    7    8 1   
     8    7   15 1   
     9    8    9 1   
    10    8   11 1   
    11    8   16 1   
    12    9   10 2   
    13    9   19 1   
    14   11   12 1   
    15   11   17 1   
    16   11   18 1   
    17   12   13 1   
    18   12   14 1   
    19   19   20 1   
    20   19   24 1   
    21   20   21 1   
    22   20   23 1   
    23   20   25 1   
    24   21   22 2   
    25   21   29 1   
    26   23   26 1   
    27   23   27 1   
    28   23   28 1   
    29   29   30 1   
    30   29   37 1   
    31   30   31 1   
    32   30   33 1   
    33   30   38 1   
    34   31   32 2   
    35   31   41 1   
    36   33   34 1   
    37   33   39 1   
    38   33   40 1   
    39   34   35 1   
    40   34   36 1   
    41   41   42 1   
    42   41   45 1   
    43   42   43 1   
    44   42   46 1   
    45   42   47 1   
    46   43   44 2   
    47   43   48 1   
    48   48   49 1   
    49   48   56 1   
    50   49   50 1   
    51   49   52 1   
    52   49   57 1   
    53   50   51 2   
    54   50   62 1   
    55   52   53 1   
    56   52   58 1   
    57   52   59 1   
    58   53   54 1   
    59   53   55 2   
    60   54   60 1   
    61   54   61 1   
    62   62   63 1   
    63   62   66 1   
    64   63   64 1   
    65   63   67 1   
    66   63   68 1   
    67   64   65 2   
    68   64   69 1   
    69   69   70 1   
    70   69   76 1   
    71   70   71 1   
    72   70   73 1   
    73   70   77 1   
    74   71   72 2   
    75   71   83 1   
    76   73   74 1   
    77   73   75 1   
    78   73   78 1   
    79   74   80 1   
    80   74   81 1   
    81   74   82 1   
    82   75   79 1   
    83   83   84 1   
    84   83   91 1   
    85   84   85 1   
    86   84   87 1   
    87   84   92 1   
    88   85   86 2   
    89   85  102 1   
    90   87   88 1   
    91   87   89 1   
    92   87   93 1   
    93   88   90 1   
    94   88   94 1   
    95   88   95 1   
    96   89   96 1   
    97   89   97 1   
    98   89   98 1   
    99   90   99 1   
   100   90  100 1   
   101   90  101 1   
   102  102  103 1   
   103  102  110 1   
   104  103  104 1   
   105  103  106 1   
   106  103  111 1   
   107  104  105 2   
   108  104  114 1   
   109  106  107 1   
   110  106  112 1   
   111  106  113 1   
   112  107  108 1   
   113  107  109 1   
   114  114  115 1   
   115  114  125 1   
   116  115  116 1   
   117  115  118 1   
   118  115  126 1   
   119  116  117 2   
   120  116  134 1   
   121  118  119 1   
   122  118  127 1   
   123  118  128 1   
   124  119  120 ar  
   125  119  121 ar  
   126  120  122 ar  
   127  120  129 1   
   128  121  123 ar  
   129  121  130 1   
   130  122  124 ar  
   131  122  131 1   
   132  123  124 ar  
   133  123  132 1   
   134  124  133 1   
   135  134  135 1   
   136  134  140 1   
   137  135  136 1   
   138  135  138 1   
   139  135  141 1   
   140  136  137 2   
   141  136  148 1   
   142  138  139 1   
   143  138  142 1   
   144  138  143 1   
   145  139  140 1   
   146  139  144 1   
   147  139  145 1   
   148  140  146 1   
   149  140  147 1   
   150  148  149 1   
   151  148  157 1   
   152  149  150 1   
   153  149  152 1   
   154  149  158 1   
   155  150  151 2   
   156  150  163 1   
   157  152  153 1   
   158  152  159 1   
   159  152  160 1   
   160  153  154 1   
   161  153  161 1   
   162  153  162 1   
   163  154  155 1   
   164  154  156 1   
   165  163  164 1   
   166  163  168 1   
   167  164  165 1   
   168  164  166 1   
   169  164  167 1   
   170  170  171 1   
   171  170  172 1   
   172  173  174 1   
   173  173  175 1   
@<TRIPOS>SUBSTRUCTURE
     1 MOL         1 TEMP              0 ****  ****    0 ROOT
