@<TRIPOS>MOLECULE
MOL
  175   173     1     0     0
SMALL
resp


@<TRIPOS>ATOM
      1 C1          0.6780    3.4060    5.7150 c3        1 MOL     -0.425259
      2 C2         -0.0120    3.5420    4.3100 c         1 MOL      0.705764
      3 O1          0.6970    3.7090    3.2980 o         1 MOL     -0.554297
      4 H1          0.0930    3.9480    6.4590 hc        1 MOL      0.107593
      5 H2          0.7330    2.3540    5.9930 hc        1 MOL      0.107593
      6 H3          1.6830    3.8250    5.6690 hc        1 MOL      0.107593
      7 N1         -1.3350    3.5390    4.1730 n         1 MOL     -0.686151
      8 C3         -1.9880    3.3480    2.8780 c3        1 MOL      0.465573
      9 C4         -2.0510    4.6390    2.0270 c         1 MOL      0.560291
     10 O2         -2.4110    5.6690    2.6420 o         1 MOL     -0.576294
     11 C5         -3.4130    2.6940    2.9570 c3        1 MOL     -0.567852
     12 C6         -4.0890    2.6950    1.5460 c         1 MOL      0.899733
     13 O3         -5.1480    3.3600    1.4300 o         1 MOL     -0.638189
     14 O4         -3.6470    1.9700    0.6280 o         1 MOL     -0.638189
     15 H4         -1.8720    3.4790    5.0320 hn        1 MOL      0.329227
     16 H5         -1.3200    2.7190    2.2890 h1        1 MOL     -0.020957
     17 H6         -3.9290    3.3520    3.6510 hc        1 MOL      0.097778
     18 H7         -3.4370    1.6900    3.3670 hc        1 MOL      0.097778
     19 N2         -1.8910    4.4970    0.6840 n         1 MOL     -0.769911
     20 C7         -2.0030    5.5650   -0.3860 c3        1 MOL      0.617236
     21 C8         -3.0840    5.2460   -1.4520 c         1 MOL      0.238006
     22 O5         -3.4820    6.1160   -2.2150 o         1 MOL     -0.558655
     23 C9         -0.6630    5.8540   -0.9950 c3        1 MOL     -0.333591
     24 H8         -1.5410    3.6070    0.3500 hn        1 MOL      0.361408
     25 H9         -2.2290    6.5800   -0.0620 h1        1 MOL     -0.029743
     26 H10        -0.7680    6.8310   -1.4690 hc        1 MOL      0.075181
     27 H11         0.1410    5.9610   -0.2640 hc        1 MOL      0.075181
     28 H12        -0.3620    5.0450   -1.6640 hc        1 MOL      0.075181
     29 N3         -3.4990    3.9760   -1.5660 n         1 MOL      0.001146
     30 C10        -4.3040    3.5130   -2.7260 c3        1 MOL      0.037929
     31 C11        -5.4250    2.5550   -2.3800 c         1 MOL      0.373635
     32 O6         -6.2140    2.1110   -3.2280 o         1 MOL     -0.563822
     33 C12        -3.5050    3.0350   -3.9330 c3        1 MOL     -0.223709
     34 C13        -2.8290    1.6900   -3.7370 c         1 MOL      0.722306
     35 O7         -2.0910    1.3030   -4.6680 o         1 MOL     -0.695348
     36 O8         -2.9140    1.0860   -2.6330 o         1 MOL     -0.695348
     37 H13        -3.2170    3.3360   -0.8380 hn        1 MOL     -0.001844
     38 H14        -4.8590    4.3780   -3.1000 h1        1 MOL      0.091185
     39 H15        -2.7080    3.7480   -4.1280 hc        1 MOL      0.054871
     40 H16        -4.2070    2.9670   -4.7580 hc        1 MOL      0.054871
     41 N4         -5.7300    2.1880   -1.1300 n         1 MOL     -0.080215
     42 C14        -7.0050    1.5200   -0.6460 c3        1 MOL     -0.214415
     43 C15        -7.2230    0.0800   -1.0830 c         1 MOL      0.596657
     44 O9         -8.2030   -0.5410   -0.6920 o         1 MOL     -0.639546
     45 H17        -5.0520    2.3070   -0.3940 hn        1 MOL     -0.077773
     46 H18        -7.8970    2.0370   -0.9910 h1        1 MOL      0.115970
     47 H19        -6.9730    1.5150    0.4440 h1        1 MOL      0.115970
     48 N5         -6.2750   -0.4940   -1.7980 n         1 MOL     -0.434664
     49 C16        -6.4430   -1.8750   -2.2250 c3        1 MOL      0.331712
     50 C17        -6.5610   -2.9400   -1.0830 c         1 MOL      0.346742
     51 O10        -6.8490   -4.1120   -1.3710 o         1 MOL     -0.529036
     52 C18        -5.4120   -2.1960   -3.2590 c3        1 MOL     -0.297843
     53 C19        -3.9930   -2.1350   -2.7130 c         1 MOL      0.818465
     54 N6         -3.0740   -2.2400   -3.6660 n         1 MOL     -0.746650
     55 O11        -3.6560   -1.9430   -1.5560 o         1 MOL     -0.841170
     56 H20        -5.5680    0.0760   -2.2270 hn        1 MOL      0.256745
     57 H21        -7.4130   -1.9770   -2.7130 h1        1 MOL      0.011345
     58 H22        -5.4340   -1.5120   -4.1090 hc        1 MOL      0.067636
     59 H23        -5.6620   -3.2070   -3.5700 hc        1 MOL      0.067636
     60 H24        -3.3240   -2.2740   -4.6410 hn        1 MOL      0.370682
     61 H25        -2.1050   -2.0740   -3.4230 hn        1 MOL      0.370682
     62 N7         -6.2770   -2.5150    0.1570 n         1 MOL     -0.035305
     63 C20        -6.4840   -3.3480    1.3550 c3        1 MOL     -0.286677
     64 C21        -5.2400   -4.1940    1.6520 c         1 MOL      0.639409
     65 O12        -5.3460   -5.2410    2.2820 o         1 MOL     -0.599116
     66 H26        -5.8380   -1.6170    0.2540 hn        1 MOL      0.206120
     67 H27        -7.2870   -4.0400    1.1420 h1        1 MOL      0.111151
     68 H28        -6.7270   -2.6840    2.1920 h1        1 MOL      0.111151
     69 N8         -4.0570   -3.7890    1.1830 n         1 MOL     -0.393583
     70 C22        -2.7360   -4.4290    1.3660 c3        1 MOL     -0.060875
     71 C23        -1.6580   -3.3580    1.5220 c         1 MOL      0.588734
     72 O13        -1.7590   -2.2990    0.9470 o         1 MOL     -0.571016
     73 C24        -2.3350   -5.1930    0.1200 c3        1 MOL      0.635409
     74 C25        -2.7370   -6.7070    0.2340 c3        1 MOL     -0.547522
     75 O14        -2.8140   -4.7280   -1.0900 oh        1 MOL     -0.652034
     76 H29        -4.1350   -2.9280    0.6670 hn        1 MOL      0.184367
     77 H30        -2.6900   -5.1250    2.2070 h1        1 MOL      0.078703
     78 H31        -1.2500   -5.1570   -0.0070 h1        1 MOL     -0.045809
     79 H32        -2.9170   -3.7820   -0.9970 ho        1 MOL      0.433683
     80 H33        -2.1230   -7.0780    1.0480 hc        1 MOL      0.125570
     81 H34        -3.8190   -6.8220    0.3620 hc        1 MOL      0.125570
     82 H35        -2.3800   -7.1640   -0.6890 hc        1 MOL      0.125570
     83 N9         -0.4990   -3.7360    2.1560 n         1 MOL     -0.742199
     84 C26         0.6560   -2.8320    2.0890 c3        1 MOL     -0.088840
     85 C27         1.4270   -3.1990    0.8160 c         1 MOL      0.613316
     86 O15         1.8160   -4.3900    0.6770 o         1 MOL     -0.595569
     87 C28         1.4620   -2.9230    3.3670 c3        1 MOL      0.323295
     88 C29         0.5270   -2.6420    4.6040 c3        1 MOL      0.178229
     89 C30         2.6230   -1.9520    3.3170 c3        1 MOL     -0.190346
     90 C31         1.3070   -2.9980    5.8740 c3        1 MOL     -0.364072
     91 H36        -0.3890   -4.5990    2.6710 hn        1 MOL      0.364727
     92 H37         0.3890   -1.7920    1.9040 h1        1 MOL      0.088217
     93 H38         1.9580   -3.9020    3.4160 hc        1 MOL     -0.050219
     94 H39        -0.2570   -3.4010    4.5820 hc        1 MOL     -0.032117
     95 H40         0.0900   -1.6470    4.6740 hc        1 MOL     -0.032117
     96 H41         3.3180   -2.1830    4.1180 hc        1 MOL      0.007367
     97 H42         3.1390   -2.0240    2.3500 hc        1 MOL      0.007367
     98 H43         2.2850   -0.9340    3.5100 hc        1 MOL      0.007367
     99 H44         1.8100   -3.9620    5.7420 hc        1 MOL      0.076326
    100 H45         2.0450   -2.1970    5.8770 hc        1 MOL      0.076326
    101 H46         0.6200   -2.9380    6.7090 hc        1 MOL      0.076326
    102 N10         1.7690   -2.1540    0.0640 n         1 MOL     -0.152025
    103 C32         2.6450   -2.2050   -1.1050 c3        1 MOL     -0.070556
    104 C33         4.0780   -1.8050   -0.7980 c         1 MOL      0.396546
    105 O16         4.4030   -1.4070    0.3440 o         1 MOL     -0.396234
    106 C34         1.9520   -1.3060   -2.2160 c3        1 MOL     -0.139077
    107 C35         0.4250   -1.6140   -2.4260 c         1 MOL      0.664114
    108 O17         0.0480   -2.4360   -3.2700 o         1 MOL     -0.662851
    109 O18        -0.3760   -0.9000   -1.7470 o         1 MOL     -0.662851
    110 H47         1.5950   -1.2290    0.4200 hn        1 MOL      0.133549
    111 H48         2.6930   -3.2290   -1.4680 h1        1 MOL      0.082593
    112 H49         2.4590   -1.3220   -3.1890 hc        1 MOL      0.044502
    113 H50         2.0360   -0.2510   -1.9400 hc        1 MOL      0.044502
    114 N11         5.0120   -1.8130   -1.7500 n         1 MOL     -0.365554
    115 C36         6.4180   -1.5090   -1.4320 c3        1 MOL      0.123256
    116 C37         6.7380   -0.0680   -0.9900 c         1 MOL      0.480564
    117 O19         7.2570    0.0850    0.1030 o         1 MOL     -0.529919
    118 C38         7.3990   -1.9470   -2.5370 c3        1 MOL     -0.048964
    119 C39         8.9210   -1.7390   -2.3820 ca        1 MOL      0.097753
    120 C40         9.6170   -0.7660   -3.0900 ca        1 MOL     -0.233891
    121 C41         9.5850   -2.5080   -1.4130 ca        1 MOL     -0.233891
    122 C42        10.9670   -0.5950   -2.7910 ca        1 MOL      0.002644
    123 C43        10.9510   -2.3780   -1.1710 ca        1 MOL      0.002644
    124 C44        11.6550   -1.3960   -1.8720 ca        1 MOL     -0.217375
    125 H51         4.7800   -2.3520   -2.5800 hn        1 MOL      0.263492
    126 H52         6.5800   -2.1010   -0.5290 h1        1 MOL      0.041916
    127 H53         7.0770   -1.4370   -3.4470 hc        1 MOL      0.026525
    128 H54         7.2510   -2.9960   -2.8110 hc        1 MOL      0.026525
    129 H55         9.1270   -0.2240   -3.8910 ha        1 MOL      0.133858
    130 H56         9.0800   -3.2420   -0.8000 ha        1 MOL      0.133858
    131 H57        11.5630    0.1320   -3.3280 ha        1 MOL      0.081934
    132 H58        11.4420   -3.0820   -0.5150 ha        1 MOL      0.081934
    133 H59        12.7140   -1.2750   -1.6870 ha        1 MOL      0.122566
    134 N12         6.2560    0.9340   -1.6880 n         1 MOL     -0.114892
    135 C45         6.4640    2.3140   -1.3120 c3        1 MOL     -0.063950
    136 C46         5.6360    2.7410   -0.0690 c         1 MOL      0.429610
    137 O20         5.9350    3.7300    0.5850 o         1 MOL     -0.526441
    138 C47         6.1680    3.2420   -2.4890 c3        1 MOL     -0.147638
    139 C48         5.1820    2.3930   -3.3490 c3        1 MOL      0.014820
    140 C49         5.6430    0.9420   -3.0530 c3        1 MOL     -0.009614
    141 H60         7.5150    2.4650   -1.0520 h1        1 MOL      0.100772
    142 H61         5.7260    4.2020   -2.2300 hc        1 MOL      0.069443
    143 H62         7.1070    3.4460   -3.0130 hc        1 MOL      0.069443
    144 H63         4.1790    2.4980   -2.9390 hc        1 MOL      0.036646
    145 H64         5.1450    2.5940   -4.4230 hc        1 MOL      0.036646
    146 H65         4.8140    0.2320   -3.0380 h1        1 MOL      0.018602
    147 H66         6.3480    0.5460   -3.7870 h1        1 MOL      0.018602
    148 N13         4.7290    1.8910    0.4860 n         1 MOL     -0.083334
    149 C50         4.0240    2.0970    1.7730 c3        1 MOL     -0.000502
    150 C51         4.8200    1.3530    2.9100 c         1 MOL      0.419972
    151 O21         5.0480    1.9140    3.9750 o         1 MOL     -0.567235
    152 C52         2.6000    1.4670    1.7570 c3        1 MOL     -0.154871
    153 C53         1.7020    2.1330    0.6960 c3        1 MOL      0.006716
    154 C54         0.4010    1.4040    0.5390 c         1 MOL      0.654331
    155 O22        -0.5440    1.9140   -0.2130 o         1 MOL     -0.769655
    156 O23         0.0720    0.3520    1.2210 o         1 MOL     -0.769655
    157 H67         4.9400    0.9360    0.2490 hn        1 MOL      0.008964
    158 H68         3.9390    3.1320    2.0920 h1        1 MOL      0.108372
    159 H69         2.1440    1.4720    2.7480 hc        1 MOL      0.099051
    160 H70         2.6590    0.4070    1.4940 hc        1 MOL      0.099051
    161 H71         2.2610    2.0010   -0.2280 hc        1 MOL      0.032271
    162 H72         1.6250    3.2090    0.8680 hc        1 MOL      0.032271
    163 N14         5.3480    0.1380    2.7560 n         1 MOL     -0.070660
    164 C55         6.3840   -0.4940    3.5790 c3        1 MOL     -0.188192
    165 H73         7.2250   -0.7820    2.9480 h1        1 MOL      0.075688
    166 H74         6.7250    0.2100    4.3380 h1        1 MOL      0.075688
    167 H75         5.9740   -1.3800    4.0630 h1        1 MOL      0.075688
    168 H76         5.0950   -0.4100    1.9450 hn        1 MOL      0.159068
    169 Ca1        -2.2880    0.0840   -0.2970 Ca        1 MOL      1.757941
    170 O24        -2.0590   -0.1980    2.8140 oh        1 MOL     -0.759831
    171 H77        -2.0810   -0.1060    3.7620 ho        1 MOL      0.382711
    172 H78        -1.1400   -0.0480    2.5800 ho        1 MOL      0.382711
    173 O25        -4.4100   -0.7990    1.5680 oh        1 MOL     -0.759831
    174 H79        -5.1240   -0.4690    2.1190 ho        1 MOL      0.382711
    175 H80        -3.6610   -0.8380    2.1660 ho        1 MOL      0.382711
@<TRIPOS>BOND
     1    1    2 1   
     2    1    4 1   
     3    1    5 1   
     4    1    6 1   
     5    2    3 2   
     6    2    7 1   
     7    7    8 1   
     8    7   15 1   
     9    8    9 1   
    10    8   11 1   
    11    8   16 1   
    12    9   10 2   
    13    9   19 1   
    14   11   12 1   
    15   11   17 1   
    16   11   18 1   
    17   12   13 1   
    18   12   14 1   
    19   19   20 1   
    20   19   24 1   
    21   20   21 1   
    22   20   23 1   
    23   20   25 1   
    24   21   22 2   
    25   21   29 1   
    26   23   26 1   
    27   23   27 1   
    28   23   28 1   
    29   29   30 1   
    30   29   37 1   
    31   30   31 1   
    32   30   33 1   
    33   30   38 1   
    34   31   32 2   
    35   31   41 1   
    36   33   34 1   
    37   33   39 1   
    38   33   40 1   
    39   34   35 1   
    40   34   36 1   
    41   41   42 1   
    42   41   45 1   
    43   42   43 1   
    44   42   46 1   
    45   42   47 1   
    46   43   44 2   
    47   43   48 1   
    48   48   49 1   
    49   48   56 1   
    50   49   50 1   
    51   49   52 1   
    52   49   57 1   
    53   50   51 2   
    54   50   62 1   
    55   52   53 1   
    56   52   58 1   
    57   52   59 1   
    58   53   54 1   
    59   53   55 2   
    60   54   60 1   
    61   54   61 1   
    62   62   63 1   
    63   62   66 1   
    64   63   64 1   
    65   63   67 1   
    66   63   68 1   
    67   64   65 2   
    68   64   69 1   
    69   69   70 1   
    70   69   76 1   
    71   70   71 1   
    72   70   73 1   
    73   70   77 1   
    74   71   72 2   
    75   71   83 1   
    76   73   74 1   
    77   73   75 1   
    78   73   78 1   
    79   74   80 1   
    80   74   81 1   
    81   74   82 1   
    82   75   79 1   
    83   83   84 1   
    84   83   91 1   
    85   84   85 1   
    86   84   87 1   
    87   84   92 1   
    88   85   86 2   
    89   85  102 1   
    90   87   88 1   
    91   87   89 1   
    92   87   93 1   
    93   88   90 1   
    94   88   94 1   
    95   88   95 1   
    96   89   96 1   
    97   89   97 1   
    98   89   98 1   
    99   90   99 1   
   100   90  100 1   
   101   90  101 1   
   102  102  103 1   
   103  102  110 1   
   104  103  104 1   
   105  103  106 1   
   106  103  111 1   
   107  104  105 2   
   108  104  114 1   
   109  106  107 1   
   110  106  112 1   
   111  106  113 1   
   112  107  108 1   
   113  107  109 1   
   114  114  115 1   
   115  114  125 1   
   116  115  116 1   
   117  115  118 1   
   118  115  126 1   
   119  116  117 2   
   120  116  134 1   
   121  118  119 1   
   122  118  127 1   
   123  118  128 1   
   124  119  120 ar  
   125  119  121 ar  
   126  120  122 ar  
   127  120  129 1   
   128  121  123 ar  
   129  121  130 1   
   130  122  124 ar  
   131  122  131 1   
   132  123  124 ar  
   133  123  132 1   
   134  124  133 1   
   135  134  135 1   
   136  134  140 1   
   137  135  136 1   
   138  135  138 1   
   139  135  141 1   
   140  136  137 2   
   141  136  148 1   
   142  138  139 1   
   143  138  142 1   
   144  138  143 1   
   145  139  140 1   
   146  139  144 1   
   147  139  145 1   
   148  140  146 1   
   149  140  147 1   
   150  148  149 1   
   151  148  157 1   
   152  149  150 1   
   153  149  152 1   
   154  149  158 1   
   155  150  151 2   
   156  150  163 1   
   157  152  153 1   
   158  152  159 1   
   159  152  160 1   
   160  153  154 1   
   161  153  161 1   
   162  153  162 1   
   163  154  155 1   
   164  154  156 1   
   165  163  164 1   
   166  163  168 1   
   167  164  165 1   
   168  164  166 1   
   169  164  167 1   
   170  170  171 1   
   171  170  172 1   
   172  173  174 1   
   173  173  175 1   
@<TRIPOS>SUBSTRUCTURE
     1 MOL         1 TEMP              0 ****  ****    0 ROOT
