@<TRIPOS>MOLECULE
MOL
  189   185     1     0     0
SMALL
resp


@<TRIPOS>ATOM
      1 C1         -0.4950    4.4470    5.3730 c3        1 MOL     -0.356291
      2 C2         -0.9770    3.9310    4.0610 c         1 MOL      0.775147
      3 O1         -0.8580    2.7410    3.8820 o         1 MOL     -0.600686
      4 H1          0.5340    4.7930    5.2710 hc        1 MOL      0.083454
      5 H2         -1.1270    5.2760    5.6920 hc        1 MOL      0.083454
      6 H3         -0.5380    3.6500    6.1150 hc        1 MOL      0.083454
      7 N1         -1.6030    4.7540    3.1920 n         1 MOL     -0.616195
      8 C3         -2.2730    4.1360    2.0310 c3        1 MOL      0.303341
      9 C4         -2.4220    5.1110    0.8420 c         1 MOL      0.467736
     10 O2         -2.8380    6.2660    1.0120 o         1 MOL     -0.550374
     11 C5         -3.6290    3.6780    2.4630 c3        1 MOL     -0.395268
     12 C6         -4.3850    3.1130    1.2360 c         1 MOL      0.767421
     13 O3         -5.5140    3.4890    0.9960 o         1 MOL     -0.665507
     14 O4         -3.7880    2.3220    0.4970 o         1 MOL     -0.665507
     15 H4         -1.5070    5.7510    3.3340 hn        1 MOL      0.309179
     16 H5         -1.6700    3.2660    1.7410 h1        1 MOL     -0.076691
     17 H6         -4.1660    4.5900    2.7470 hc        1 MOL      0.072353
     18 H7         -3.6400    2.9770    3.3000 hc        1 MOL      0.072353
     19 N2         -2.1140    4.6110   -0.3800 n         1 MOL     -0.300736
     20 C7         -2.3610    5.3620   -1.5760 c3        1 MOL      0.228384
     21 C8         -3.5910    4.8410   -2.3500 c         1 MOL      0.368434
     22 O5         -4.1460    5.5760   -3.1970 o         1 MOL     -0.574491
     23 C9         -0.9500    5.3320   -2.3150 c3        1 MOL      0.207780
     24 C10        -0.0060    6.4540   -1.8360 c3        1 MOL     -0.077198
     25 C11        -0.9840    5.3270   -3.9100 c3        1 MOL     -0.082582
     26 C12         0.3100    6.4210   -0.3570 c3        1 MOL     -0.094302
     27 H8         -1.8010    3.6540   -0.4550 hn        1 MOL      0.162875
     28 H9         -2.5580    6.4160   -1.4230 h1        1 MOL     -0.012191
     29 H10        -0.4310    4.3930   -2.1610 hc        1 MOL      0.015394
     30 H11        -0.4100    7.4330   -2.1060 hc        1 MOL      0.003655
     31 H12         0.8540    6.4420   -2.5020 hc        1 MOL      0.003655
     32 H13         0.0220    5.4310   -4.3060 hc        1 MOL     -0.000868
     33 H14        -1.4040    4.4290   -4.3620 hc        1 MOL     -0.000868
     34 H15        -1.4060    6.3050   -4.1280 hc        1 MOL     -0.000868
     35 H16        -0.4640    6.9220    0.2150 hc        1 MOL      0.016404
     36 H17         0.5050    5.3740   -0.0940 hc        1 MOL      0.016404
     37 H18         1.2050    7.0120   -0.1960 hc        1 MOL      0.016404
     38 N3         -3.8460    3.4830   -2.2740 n         1 MOL     -0.154376
     39 C13        -4.6510    2.7100   -3.2590 c3        1 MOL     -0.126020
     40 C14        -5.8950    1.9600   -2.7890 c         1 MOL      0.473228
     41 O6         -6.4880    1.3060   -3.5930 o         1 MOL     -0.521054
     42 C15        -3.7370    1.8240   -4.1110 c3        1 MOL     -0.178809
     43 C16        -2.6170    1.1370   -3.3270 c         1 MOL      0.781100
     44 O7         -2.6560    0.9010   -2.1160 o         1 MOL     -0.741574
     45 O8         -1.4570    1.1730   -3.7610 o         1 MOL     -0.741574
     46 H19        -3.3990    2.9900   -1.5110 hn        1 MOL      0.157173
     47 H20        -5.0280    3.4740   -3.9510 h1        1 MOL      0.134875
     48 H21        -3.2840    2.4380   -4.8940 hc        1 MOL      0.048189
     49 H22        -4.2330    0.9920   -4.6190 hc        1 MOL      0.048189
     50 N4         -6.3070    2.1240   -1.5330 n         1 MOL     -0.305609
     51 C17        -7.5690    1.4740   -1.0920 c3        1 MOL     -0.039322
     52 C18        -7.6940   -0.0500   -1.1940 c         1 MOL      0.389521
     53 O9         -8.8150   -0.4740   -1.2130 o         1 MOL     -0.590713
     54 H23        -5.7070    2.4660   -0.7960 hn        1 MOL      0.178725
     55 H24        -8.4230    1.9640   -1.5700 h1        1 MOL      0.070457
     56 H25        -7.5260    1.6900   -0.0250 h1        1 MOL      0.070457
     57 N5         -6.6060   -0.8070   -1.2390 n         1 MOL      0.027478
     58 C19        -6.6520   -2.2170   -1.5650 c3        1 MOL     -0.150325
     59 C20        -6.6360   -3.1690   -0.3620 c         1 MOL      0.392390
     60 O10        -6.7250   -4.3340   -0.6780 o         1 MOL     -0.456947
     61 C21        -5.5920   -2.5120   -2.6240 c3        1 MOL     -0.175567
     62 C22        -4.0800   -2.2510   -2.2400 c         1 MOL      0.752396
     63 O11        -3.8660   -1.7940   -1.0530 o         1 MOL     -0.696829
     64 O12        -3.1610   -2.4310   -3.0280 o         1 MOL     -0.696829
     65 H26        -5.7190   -0.3310   -1.1980 hn        1 MOL      0.075481
     66 H27        -7.6320   -2.4180   -1.9900 h1        1 MOL      0.144735
     67 H28        -5.8240   -1.9510   -3.5320 hc        1 MOL      0.059234
     68 H29        -5.7240   -3.5760   -2.8210 hc        1 MOL      0.059234
     69 N6         -6.5850   -2.7510    0.9220 n         1 MOL     -0.222730
     70 C23        -6.6010   -3.6500    2.0470 c3        1 MOL     -0.197581
     71 C24        -5.3160   -4.5070    2.1650 c         1 MOL      0.597259
     72 O13        -5.3860   -5.5320    2.8440 o         1 MOL     -0.575376
     73 H30        -6.4290   -1.7740    1.1230 hn        1 MOL      0.210000
     74 H31        -7.4320   -4.3550    2.0450 h1        1 MOL      0.089140
     75 H32        -6.5560   -3.0250    2.9420 h1        1 MOL      0.089140
     76 N7         -4.1950   -4.0420    1.5660 n         1 MOL     -0.315558
     77 C25        -2.8910   -4.6020    1.7170 c3        1 MOL      0.208027
     78 C26        -1.8730   -3.4680    1.8900 c         1 MOL      0.180797
     79 O14        -2.0360   -2.3810    1.2940 o         1 MOL     -0.328572
     80 C27        -2.4830   -5.5400    0.4770 c3        1 MOL     -0.374089
     81 C28        -2.5350   -4.8860   -0.8910 c3        1 MOL      0.067430
     82 C29        -2.3310   -5.8630   -2.0820 c         1 MOL      0.560276
     83 N8         -2.2470   -5.3100   -3.2850 n         1 MOL     -0.764741
     84 O15        -2.2620   -7.1180   -2.0080 o         1 MOL     -0.598674
     85 H33        -4.3720   -3.3260    0.8790 hn        1 MOL      0.085053
     86 H34        -2.8050   -5.1440    2.6510 h1        1 MOL     -0.003012
     87 H35        -3.2490   -6.3170    0.4780 hc        1 MOL      0.116073
     88 H36        -1.5030   -5.9610    0.6790 hc        1 MOL      0.116073
     89 H37        -1.8860   -4.0110   -0.9350 hc        1 MOL      0.048921
     90 H38        -3.5670   -4.5310   -0.9370 hc        1 MOL      0.048921
     91 H39        -2.3990   -4.3090   -3.3540 hn        1 MOL      0.358171
     92 H40        -2.0470   -5.9190   -4.0640 hn        1 MOL      0.358171
     93 N9         -0.8990   -3.7240    2.7200 n         1 MOL     -0.195971
     94 C30         0.3030   -2.8920    2.8690 c3        1 MOL     -0.088195
     95 C31         1.4240   -3.2760    1.8850 c         1 MOL      0.497376
     96 O16         2.0570   -4.3310    1.9690 o         1 MOL     -0.594097
     97 C32         0.8390   -2.9270    4.3710 c3        1 MOL      0.312180
     98 C33         1.7040   -1.6780    4.6610 c3        1 MOL     -0.261050
     99 C34        -0.2930   -2.8870    5.4370 c3        1 MOL     -0.261050
    100 H41        -0.6810   -4.6680    3.0130 hn        1 MOL      0.240243
    101 H42        -0.0050   -1.8640    2.6600 h1        1 MOL      0.100433
    102 H43         1.3610   -3.8730    4.5050 hc        1 MOL     -0.038729
    103 H44         1.0320   -0.8190    4.6440 hc        1 MOL      0.041799
    104 H45         2.3170   -1.8650    5.5410 hc        1 MOL      0.041799
    105 H46         2.3450   -1.5950    3.7780 hc        1 MOL      0.041799
    106 H47        -1.0450   -3.6750    5.4130 hc        1 MOL      0.041799
    107 H48         0.1680   -2.9620    6.4250 hc        1 MOL      0.041799
    108 H49        -0.8360   -1.9590    5.2410 hc        1 MOL      0.041799
    109 N10         1.7790   -2.3830    0.9730 n         1 MOL     -0.047194
    110 C35         2.9290   -2.6160    0.0660 c3        1 MOL      0.009848
    111 C36         4.3280   -2.2020    0.7540 c         1 MOL      0.278895
    112 O17         4.4440   -1.6580    1.9050 o         1 MOL     -0.363328
    113 C37         2.5280   -1.6960   -1.1060 c3        1 MOL     -0.260488
    114 C38         3.5160   -1.4080   -2.2400 c         1 MOL      0.701134
    115 N11         3.8640   -2.4530   -2.9550 n         1 MOL     -0.787558
    116 O18         4.2220   -0.4420   -2.2770 o         1 MOL     -0.582320
    117 H50         1.1750   -1.5860    0.8380 hn        1 MOL      0.017989
    118 H51         3.0070   -3.6380   -0.3200 h1        1 MOL      0.067477
    119 H52         2.3090   -0.7590   -0.5910 hc        1 MOL      0.109016
    120 H53         1.5750   -1.9820   -1.5500 hc        1 MOL      0.109016
    121 H54         3.3650   -3.3350   -2.8970 hn        1 MOL      0.363629
    122 H55         4.6160   -2.2400   -3.6000 hn        1 MOL      0.363629
    123 N12         5.4680   -2.2580   -0.0150 n         1 MOL     -0.239945
    124 C39         6.7800   -1.9120    0.5020 c3        1 MOL      0.187838
    125 C40         6.9380   -0.3990    0.6460 c         1 MOL      0.387904
    126 O19         7.5590   -0.0180    1.6290 o         1 MOL     -0.560161
    127 C41         7.9570   -2.5830   -0.2390 c3        1 MOL     -0.332071
    128 C42         7.8070   -2.5860   -1.7550 ca        1 MOL      0.169476
    129 C43         7.0940   -3.6690   -2.3650 ca        1 MOL     -0.208541
    130 C44         8.2190   -1.5020   -2.4930 ca        1 MOL     -0.208541
    131 C45         6.9030   -3.6160   -3.7360 ca        1 MOL     -0.241671
    132 C46         8.0090   -1.3850   -3.9010 ca        1 MOL     -0.241671
    133 C47         7.3450   -2.5100   -4.5200 ca        1 MOL      0.344734
    134 O20         6.9900   -2.5210   -5.8050 oh        1 MOL     -0.569926
    135 H56         5.4940   -2.5440   -0.9820 hn        1 MOL      0.147554
    136 H57         6.7810   -2.3540    1.5040 h1        1 MOL      0.044868
    137 H58         8.0780   -3.6230    0.0430 hc        1 MOL      0.104225
    138 H59         8.8600   -2.0290    0.0340 hc        1 MOL      0.104225
    139 H60         6.5580   -4.3380   -1.7130 ha        1 MOL      0.128553
    140 H61         8.6670   -0.6800   -1.9440 ha        1 MOL      0.128553
    141 H62         6.2950   -4.3410   -4.2570 ha        1 MOL      0.125813
    142 H63         8.2420   -0.4430   -4.3860 ha        1 MOL      0.125813
    143 H64         7.2140   -1.6860   -6.2300 ho        1 MOL      0.423434
    144 N13         6.3020    0.4750   -0.2000 n         1 MOL     -0.029274
    145 C48         6.3400    1.9100    0.0080 c3        1 MOL     -0.262767
    146 C49         5.4080    2.4640    1.0980 c         1 MOL      0.549035
    147 O21         5.5310    3.6420    1.4020 o         1 MOL     -0.548577
    148 C50         6.1270    2.6860   -1.2560 c3        1 MOL     -0.029602
    149 C51         7.0720    2.1650   -2.3990 c3        1 MOL     -0.021839
    150 C52         8.5980    2.2590   -2.0590 c         1 MOL      0.600910
    151 O22         8.9650    3.2320   -1.3840 o         1 MOL     -0.677359
    152 O23         9.4790    1.4520   -2.5140 o         1 MOL     -0.677359
    153 H65         5.8760    0.0670   -1.0270 hn        1 MOL      0.257961
    154 H66         7.2930    2.1960    0.4520 h1        1 MOL      0.178241
    155 H67         6.2780    3.7530   -1.0460 hc        1 MOL      0.024507
    156 H68         5.0750    2.5610   -1.5260 hc        1 MOL      0.024507
    157 H69         6.8930    2.6230   -3.3690 hc        1 MOL     -0.019247
    158 H70         6.8030    1.1340   -2.6180 hc        1 MOL     -0.019247
    159 N14         4.6380    1.5660    1.7030 n         1 MOL     -0.177703
    160 C53         3.6120    1.9900    2.6870 c3        1 MOL      0.050175
    161 C54         4.0990    1.6380    4.1470 c         1 MOL      0.408498
    162 O24         4.2500    2.5190    4.9630 o         1 MOL     -0.534354
    163 C55         2.2800    1.3590    2.3250 c3        1 MOL      0.125430
    164 C56         1.6200    1.9890    1.1030 c3        1 MOL     -0.198207
    165 C57         0.3510    1.2270    0.7880 c         1 MOL      0.659463
    166 O25        -0.5230    1.7770    0.0480 o         1 MOL     -0.639073
    167 O26         0.0200    0.0630    1.1470 o         1 MOL     -0.639073
    168 H71         4.7280    0.5960    1.4390 hn        1 MOL     -0.027858
    169 H72         3.5320    3.0790    2.7140 h1        1 MOL      0.027101
    170 H73         1.5770    1.4170    3.1580 hc        1 MOL      0.001981
    171 H74         2.5110    0.3180    2.0970 hc        1 MOL      0.001981
    172 H75         2.3520    1.9540    0.2870 hc        1 MOL      0.056529
    173 H76         1.4590    3.0170    1.4430 hc        1 MOL      0.056529
    174 N15         4.3540    0.3410    4.3610 n         1 MOL     -0.069693
    175 C58         4.7840   -0.3620    5.5870 c3        1 MOL     -0.285128
    176 H77         5.6790    0.1150    5.9850 h1        1 MOL      0.109009
    177 H78         3.9880   -0.3180    6.3300 h1        1 MOL      0.109009
    178 H79         5.0030   -1.4040    5.3510 h1        1 MOL      0.109009
    179 H80         4.0880   -0.2460    3.5800 hn        1 MOL      0.091765
    180 Ca1        -2.4810    0.0470    0.3550 Ca        1 MOL      1.728127
    181 O27        -2.0250    0.4310    3.0880 oh        1 MOL     -0.867659
    182 H81        -1.4900    1.1800    3.3430 ho        1 MOL      0.416722
    183 H82        -2.4360    0.1530    3.9050 ho        1 MOL      0.416722
    184 O28        -4.6610   -0.4140    2.1620 oh        1 MOL     -0.867659
    185 H83        -5.5810   -0.1510    2.2960 ho        1 MOL      0.416722
    186 H84        -4.3910   -0.7920    2.9970 ho        1 MOL      0.416722
    187 O29        -0.9930   -1.2520   -1.6700 oh        1 MOL     -0.867659
    188 H85        -1.7540   -1.6740   -2.0560 ho        1 MOL      0.416722
    189 H86        -0.8330   -0.4870   -2.2290 ho        1 MOL      0.416722
@<TRIPOS>BOND
     1    1    2 1   
     2    1    4 1   
     3    1    5 1   
     4    1    6 1   
     5    2    3 2   
     6    2    7 1   
     7    7    8 1   
     8    7   15 1   
     9    8    9 1   
    10    8   11 1   
    11    8   16 1   
    12    9   10 2   
    13    9   19 1   
    14   11   12 1   
    15   11   17 1   
    16   11   18 1   
    17   12   13 1   
    18   12   14 1   
    19   19   20 1   
    20   19   27 1   
    21   20   21 1   
    22   20   23 1   
    23   20   28 1   
    24   21   22 2   
    25   21   38 1   
    26   23   24 1   
    27   23   25 1   
    28   23   29 1   
    29   24   26 1   
    30   24   30 1   
    31   24   31 1   
    32   25   32 1   
    33   25   33 1   
    34   25   34 1   
    35   26   35 1   
    36   26   36 1   
    37   26   37 1   
    38   38   39 1   
    39   38   46 1   
    40   39   40 1   
    41   39   42 1   
    42   39   47 1   
    43   40   41 2   
    44   40   50 1   
    45   42   43 1   
    46   42   48 1   
    47   42   49 1   
    48   43   44 1   
    49   43   45 1   
    50   50   51 1   
    51   50   54 1   
    52   51   52 1   
    53   51   55 1   
    54   51   56 1   
    55   52   53 2   
    56   52   57 1   
    57   57   58 1   
    58   57   65 1   
    59   58   59 1   
    60   58   61 1   
    61   58   66 1   
    62   59   60 2   
    63   59   69 1   
    64   61   62 1   
    65   61   67 1   
    66   61   68 1   
    67   62   63 1   
    68   62   64 1   
    69   69   70 1   
    70   69   73 1   
    71   70   71 1   
    72   70   74 1   
    73   70   75 1   
    74   71   72 2   
    75   71   76 1   
    76   76   77 1   
    77   76   85 1   
    78   77   78 1   
    79   77   80 1   
    80   77   86 1   
    81   78   79 2   
    82   78   93 1   
    83   80   81 1   
    84   80   87 1   
    85   80   88 1   
    86   81   82 1   
    87   81   89 1   
    88   81   90 1   
    89   82   83 1   
    90   82   84 2   
    91   83   91 1   
    92   83   92 1   
    93   93   94 1   
    94   93  100 1   
    95   94   95 1   
    96   94   97 1   
    97   94  101 1   
    98   95   96 2   
    99   95  109 1   
   100   97   98 1   
   101   97   99 1   
   102   97  102 1   
   103   98  103 1   
   104   98  104 1   
   105   98  105 1   
   106   99  106 1   
   107   99  107 1   
   108   99  108 1   
   109  109  110 1   
   110  109  117 1   
   111  110  111 1   
   112  110  113 1   
   113  110  118 1   
   114  111  112 2   
   115  111  123 1   
   116  113  114 1   
   117  113  119 1   
   118  113  120 1   
   119  114  115 1   
   120  114  116 2   
   121  115  121 1   
   122  115  122 1   
   123  123  124 1   
   124  123  135 1   
   125  124  125 1   
   126  124  127 1   
   127  124  136 1   
   128  125  126 2   
   129  125  144 1   
   130  127  128 1   
   131  127  137 1   
   132  127  138 1   
   133  128  129 ar  
   134  128  130 ar  
   135  129  131 ar  
   136  129  139 1   
   137  130  132 ar  
   138  130  140 1   
   139  131  133 ar  
   140  131  141 1   
   141  132  133 ar  
   142  132  142 1   
   143  133  134 1   
   144  134  143 1   
   145  144  145 1   
   146  144  153 1   
   147  145  146 1   
   148  145  148 1   
   149  145  154 1   
   150  146  147 2   
   151  146  159 1   
   152  148  149 1   
   153  148  155 1   
   154  148  156 1   
   155  149  150 1   
   156  149  157 1   
   157  149  158 1   
   158  150  151 1   
   159  150  152 1   
   160  159  160 1   
   161  159  168 1   
   162  160  161 1   
   163  160  163 1   
   164  160  169 1   
   165  161  162 2   
   166  161  174 1   
   167  163  164 1   
   168  163  170 1   
   169  163  171 1   
   170  164  165 1   
   171  164  172 1   
   172  164  173 1   
   173  165  166 1   
   174  165  167 1   
   175  174  175 1   
   176  174  179 1   
   177  175  176 1   
   178  175  177 1   
   179  175  178 1   
   180  181  182 1   
   181  181  183 1   
   182  184  185 1   
   183  184  186 1   
   184  187  188 1   
   185  187  189 1   
@<TRIPOS>SUBSTRUCTURE
     1 MOL         1 TEMP              0 ****  ****    0 ROOT
