@<TRIPOS>MOLECULE
MOL
  176   174     1     0     0
SMALL
resp


@<TRIPOS>ATOM
      1 C1         -2.0740   -1.9710    6.0780 c3        1 MOL     -0.417817
      2 C2         -1.6700   -2.0100    4.6140 c         1 MOL      0.829966
      3 O1         -2.4450   -1.6980    3.7050 o         1 MOL     -0.630316
      4 H1         -1.4560   -2.6670    6.6440 hc        1 MOL      0.104979
      5 H2         -1.9340   -0.9630    6.4680 hc        1 MOL      0.104979
      6 H3         -3.1220   -2.2570    6.1740 hc        1 MOL      0.104979
      7 N1         -0.4660   -2.5250    4.3200 n         1 MOL     -0.637464
      8 C3          0.0010   -2.6720    2.9290 c3        1 MOL      0.023907
      9 C4         -0.1220   -4.1610    2.4450 c         1 MOL      0.634949
     10 O2         -0.0220   -5.1660    3.1910 o         1 MOL     -0.588791
     11 C5          1.5000   -2.2740    2.9880 c3        1 MOL     -0.138289
     12 C6          2.0110   -1.9740    1.5560 c         1 MOL      0.825497
     13 O3          2.6480   -0.9320    1.2820 o         1 MOL     -0.812325
     14 O4          1.5950   -2.6240    0.6000 o         1 MOL     -0.812325
     15 H4          0.1880   -2.7310    5.0610 hn        1 MOL      0.331847
     16 H5         -0.5660   -1.9720    2.3290 h1        1 MOL      0.043583
     17 H6          2.0710   -3.0830    3.4230 hc        1 MOL      0.035696
     18 H7          1.7190   -1.4260    3.6460 hc        1 MOL      0.035696
     19 N2         -0.6000   -4.3940    1.2270 n         1 MOL     -0.328645
     20 C7         -0.7610   -5.6930    0.6070 c3        1 MOL     -0.114465
     21 C8          0.5400   -6.1710   -0.1580 c         1 MOL      0.571936
     22 O5          0.6730   -7.3920   -0.2440 o         1 MOL     -0.567183
     23 C9         -2.0730   -5.5430   -0.1930 c3        1 MOL      0.002672
     24 C10        -2.0340   -5.0580   -1.5410 c3        1 MOL     -0.230281
     25 C11        -3.3960   -5.2300   -2.2560 c3        1 MOL     -0.077397
     26 C12        -3.6220   -4.3170   -3.4460 c3        1 MOL      0.188636
     27 N3         -4.9260   -4.3730   -4.0660 n4        1 MOL     -0.476612
     28 H8         -0.6740   -3.5970    0.6110 hn        1 MOL      0.284382
     29 H9         -1.0630   -6.3810    1.4030 h1        1 MOL      0.115438
     30 H10        -2.7660   -4.9550    0.4150 hc        1 MOL      0.051404
     31 H11        -2.4420   -6.5710   -0.2600 hc        1 MOL      0.051404
     32 H12        -1.3780   -5.7680   -2.0440 hc        1 MOL      0.107356
     33 H13        -1.8540   -3.9810   -1.5290 hc        1 MOL      0.107356
     34 H14        -4.1710   -5.0950   -1.5020 hc        1 MOL      0.039204
     35 H15        -3.4520   -6.2680   -2.5790 hc        1 MOL      0.039204
     36 H16        -2.8290   -4.5010   -4.1740 hx        1 MOL      0.041483
     37 H17        -3.5000   -3.2720   -3.1500 hx        1 MOL      0.041483
     38 H18        -5.6310   -4.0490   -3.4190 hn        1 MOL      0.353213
     39 H19        -4.9150   -3.7650   -4.8680 hn        1 MOL      0.353213
     40 H20        -5.1490   -5.3370   -4.2810 hn        1 MOL      0.353213
     41 N4          1.3490   -5.2380   -0.6180 n         1 MOL     -0.468978
     42 C13         2.4690   -5.4620   -1.5230 c3        1 MOL      0.059321
     43 C14         3.8460   -5.1400   -0.7970 c         1 MOL      0.356349
     44 O6          4.8970   -5.3900   -1.3980 o         1 MOL     -0.523127
     45 C15         2.2420   -4.6070   -2.7760 c3        1 MOL     -0.127313
     46 C16         1.9620   -3.1490   -2.5880 c         1 MOL      0.729602
     47 O7          2.9340   -2.4100   -2.5070 o         1 MOL     -0.742173
     48 O8          0.7830   -2.6980   -2.5400 o         1 MOL     -0.742173
     49 H21         1.2540   -4.3530   -0.1550 hn        1 MOL      0.344295
     50 H22         2.5120   -6.4760   -1.9270 h1        1 MOL      0.114748
     51 H23         1.5060   -5.0790   -3.4350 hc        1 MOL      0.032542
     52 H24         3.1920   -4.7690   -3.2860 hc        1 MOL      0.032542
     53 N5          3.8740   -4.5040    0.3440 n         1 MOL     -0.069686
     54 C17         5.0720   -4.2110    1.1350 c3        1 MOL     -0.078930
     55 C18         6.0030   -3.0040    0.6670 c         1 MOL      0.521415
     56 O9          7.1910   -3.0160    1.0160 o         1 MOL     -0.564246
     57 H25         2.9770   -4.3060    0.7460 hn        1 MOL      0.111914
     58 H26         5.6260   -5.1170    1.3620 h1        1 MOL      0.064962
     59 H27         4.6030   -3.8000    2.0290 h1        1 MOL      0.064962
     60 N6          5.4950   -1.9850   -0.0150 n         1 MOL     -0.170412
     61 C19         6.3490   -1.0990   -0.9000 c3        1 MOL     -0.162254
     62 C20         6.7720    0.2010   -0.1810 c         1 MOL      0.311087
     63 O10         7.3840    1.0640   -0.8450 o         1 MOL     -0.471134
     64 C21         5.6800   -0.9190   -2.2700 c3        1 MOL     -0.123297
     65 C22         4.7020    0.2560   -2.3570 c         1 MOL      0.615503
     66 N7          4.8930    1.2480   -3.1450 n         1 MOL     -0.759896
     67 O11         3.7950    0.3680   -1.5070 o         1 MOL     -0.712961
     68 H28         4.5000   -2.0130   -0.1190 hn        1 MOL      0.158826
     69 H29         7.3240   -1.5710   -1.0510 h1        1 MOL      0.183036
     70 H30         5.3010   -1.8450   -2.7030 hc        1 MOL      0.089943
     71 H31         6.4370   -0.6900   -3.0190 hc        1 MOL      0.089943
     72 H32         5.7530    1.2680   -3.6680 hn        1 MOL      0.384603
     73 H33         4.3030    2.0680   -3.0950 hn        1 MOL      0.384603
     74 N8          6.2790    0.4610    1.0420 n         1 MOL     -0.038287
     75 C23         6.5790    1.6340    1.8180 c3        1 MOL     -0.414509
     76 C24         5.4800    2.6680    2.0330 c         1 MOL      0.765438
     77 O12         5.5640    3.6130    2.8090 o         1 MOL     -0.594986
     78 H34         5.6580   -0.2660    1.3790 hn        1 MOL      0.174718
     79 H35         7.4260    2.1640    1.3800 h1        1 MOL      0.160044
     80 H36         6.8560    1.2350    2.7950 h1        1 MOL      0.160044
     81 N9          4.3830    2.4710    1.2990 n         1 MOL     -0.831469
     82 C25         3.2590    3.4360    1.0420 c3        1 MOL      0.563373
     83 C26         1.9310    2.7260    0.8300 c         1 MOL      0.325140
     84 O13         1.8770    1.6960    0.2290 o         1 MOL     -0.577582
     85 C27         3.4690    4.3710   -0.1570 c3        1 MOL     -0.204135
     86 C28         4.8050    5.0160   -0.3590 ca        1 MOL      0.102161
     87 C29         5.9030    4.3660   -1.0080 ca        1 MOL     -0.179769
     88 C30         4.8760    6.4210   -0.1180 ca        1 MOL     -0.179769
     89 C31         7.0640    5.0660   -1.3450 ca        1 MOL     -0.235244
     90 C32         5.9910    7.1730   -0.5670 ca        1 MOL     -0.235244
     91 C33         7.0560    6.4920   -1.2390 ca        1 MOL      0.317441
     92 O14         8.0150    7.2110   -1.8570 oh        1 MOL     -0.485793
     93 H37         4.4110    1.6970    0.6600 hn        1 MOL      0.523832
     94 H38         3.1690    4.0640    1.9220 h1        1 MOL     -0.016310
     95 H39         2.6770    5.1120   -0.0860 hc        1 MOL      0.043528
     96 H40         3.3230    3.7830   -1.0620 hc        1 MOL      0.043528
     97 H41         5.7720    3.3200   -1.2430 ha        1 MOL      0.127845
     98 H42         4.0100    6.9410    0.2590 ha        1 MOL      0.127845
     99 H43         7.8630    4.4940   -1.8170 ha        1 MOL      0.141825
    100 H44         5.9820    8.2510   -0.5270 ha        1 MOL      0.141825
    101 H45         8.0170    8.1460   -1.6460 ho        1 MOL      0.368366
    102 N10         0.8580    3.3890    1.1140 n         1 MOL     -0.255853
    103 C34        -0.5330    3.0420    0.9390 c3        1 MOL     -0.243882
    104 C35        -1.3700    4.1730    0.3930 c         1 MOL      0.551556
    105 O15        -1.1470    5.3570    0.5990 o         1 MOL     -0.530993
    106 C36        -1.2290    2.4330    2.2050 c3        1 MOL      0.200108
    107 C37        -1.2420    3.4860    3.3570 c3        1 MOL     -0.111200
    108 C38        -0.4720    1.1390    2.6020 c3        1 MOL     -0.236056
    109 C39        -1.8480    2.9240    4.6280 c3        1 MOL     -0.094590
    110 H46         1.0460    4.1840    1.7040 hn        1 MOL      0.203299
    111 H47        -0.5790    2.3010    0.1470 h1        1 MOL      0.146651
    112 H48        -2.2140    2.0730    1.9060 hc        1 MOL     -0.067343
    113 H49        -1.8820    4.2990    3.0450 hc        1 MOL      0.062231
    114 H50        -0.2360    3.8100    3.6120 hc        1 MOL      0.062231
    115 H51         0.5720    1.2890    2.8720 hc        1 MOL      0.098286
    116 H52        -1.0710    0.6730    3.3860 hc        1 MOL      0.098286
    117 H53        -0.6000    0.5750    1.6740 hc        1 MOL      0.098286
    118 H54        -1.8120    3.7030    5.3940 hc        1 MOL      0.020546
    119 H55        -2.8530    2.5520    4.4470 hc        1 MOL      0.020546
    120 H56        -1.2670    2.0680    4.9420 hc        1 MOL      0.020546
    121 N11        -2.3810    3.6530   -0.3350 n         1 MOL     -0.315000
    122 C40        -3.4680    4.3680   -0.7990 c3        1 MOL      0.023340
    123 C41        -4.8050    3.7920   -0.4390 c         1 MOL      0.394036
    124 O16        -4.8300    2.7530    0.2150 o         1 MOL     -0.369324
    125 C42        -3.3600    4.5890   -2.3090 c3        1 MOL     -0.122375
    126 O17        -3.5690    3.3640   -2.9960 oh        1 MOL     -0.573983
    127 H57        -2.3510    2.6580   -0.4900 hn        1 MOL      0.252727
    128 H58        -3.4770    5.3620   -0.3720 h1        1 MOL      0.062404
    129 H59        -2.3630    4.9390   -2.5880 h1        1 MOL      0.112894
    130 H60        -4.1200    5.3060   -2.6200 h1        1 MOL      0.112894
    131 H61        -2.7160    3.0580   -3.3030 ho        1 MOL      0.413459
    132 N12        -5.8760    4.3980   -0.9320 n         1 MOL     -0.308309
    133 C43        -7.2540    4.1520   -0.5880 c3        1 MOL      0.029914
    134 C44        -7.7660    2.7570   -0.9590 c         1 MOL      0.484360
    135 O18        -8.6370    2.3570   -0.2020 o         1 MOL     -0.533692
    136 C45        -8.1810    5.2020   -1.1760 c3        1 MOL     -0.331064
    137 H62        -5.7110    5.2730   -1.4060 hn        1 MOL      0.272502
    138 H63        -7.3040    4.2530    0.4980 h1        1 MOL      0.110941
    139 H64        -7.9820    5.3830   -2.2320 hc        1 MOL      0.106528
    140 H65        -9.1940    4.8630   -0.9810 hc        1 MOL      0.106528
    141 H66        -8.0650    6.1790   -0.7090 hc        1 MOL      0.106528
    142 N13        -7.3070    2.0180   -1.9070 n         1 MOL     -0.340936
    143 C46        -7.7850    0.6230   -2.1590 c3        1 MOL      0.098193
    144 C47        -7.1900   -0.3740   -1.0730 c         1 MOL      0.401230
    145 O19        -7.8460   -1.2080   -0.5560 o         1 MOL     -0.485867
    146 C48        -7.4990    0.2700   -3.6220 c3        1 MOL     -0.270813
    147 H67        -6.5950    2.3900   -2.5240 hn        1 MOL      0.238326
    148 H68        -8.8590    0.6380   -2.0300 h1        1 MOL      0.102328
    149 H69        -7.9550   -0.6890   -3.8480 hc        1 MOL      0.072499
    150 H70        -7.9940    0.9650   -4.2930 hc        1 MOL      0.072499
    151 H71        -6.4060    0.1940   -3.6760 hc        1 MOL      0.072499
    152 N14        -6.0010   -0.0180   -0.5610 n         1 MOL     -0.234568
    153 C49        -5.3110   -0.8370    0.4520 c3        1 MOL     -0.172256
    154 C50        -5.9200   -0.4880    1.8670 c         1 MOL      0.523988
    155 O20        -6.3270   -1.4160    2.5980 o         1 MOL     -0.525666
    156 C51        -3.7730   -0.5890    0.4180 c3        1 MOL     -0.153601
    157 C52        -3.0820   -1.0480   -0.7860 c3        1 MOL      0.027045
    158 C53        -1.5720   -0.8290   -0.6660 c         1 MOL      0.869603
    159 O21        -0.8130   -1.5990   -0.0650 o         1 MOL     -0.859024
    160 O22        -1.0360    0.1810   -1.2020 o         1 MOL     -0.859024
    161 H72        -5.5290    0.8260   -0.8610 hn        1 MOL      0.225251
    162 H73        -5.5350   -1.8840    0.2830 h1        1 MOL      0.123952
    163 H74        -3.4430   -1.1960    1.2720 hc        1 MOL      0.116065
    164 H75        -3.5480    0.4600    0.5770 hc        1 MOL      0.116065
    165 H76        -3.3720   -0.6660   -1.7690 hc        1 MOL     -0.045329
    166 H77        -3.2730   -2.1200   -0.8610 hc        1 MOL     -0.045329
    167 N15        -6.0990    0.8180    2.1580 n         1 MOL     -0.081678
    168 C54        -6.7370    1.1840    3.3740 c3        1 MOL     -0.379038
    169 H78        -6.1670    0.7890    4.2150 h1        1 MOL      0.132435
    170 H79        -6.7870    2.2700    3.4470 h1        1 MOL      0.132435
    171 H80        -7.7450    0.7710    3.3930 h1        1 MOL      0.132435
    172 H81        -5.7940    1.5350    1.5130 hn        1 MOL      0.116925
    173 Ca1         1.4430   -0.5910   -1.1230 Ca        1 MOL      1.844148
    174 O23         1.0370    0.0920   -3.6000 oh        1 MOL     -0.838550
    175 H82         1.1500    0.9360   -4.0380 ho        1 MOL      0.411277
    176 H83         1.0580   -0.5520   -4.3100 ho        1 MOL      0.411277
@<TRIPOS>BOND
     1    1    2 1   
     2    1    4 1   
     3    1    5 1   
     4    1    6 1   
     5    2    3 2   
     6    2    7 1   
     7    7    8 1   
     8    7   15 1   
     9    8    9 1   
    10    8   11 1   
    11    8   16 1   
    12    9   10 2   
    13    9   19 1   
    14   11   12 1   
    15   11   17 1   
    16   11   18 1   
    17   12   13 1   
    18   12   14 1   
    19   19   20 1   
    20   19   28 1   
    21   20   21 1   
    22   20   23 1   
    23   20   29 1   
    24   21   22 2   
    25   21   41 1   
    26   23   24 1   
    27   23   30 1   
    28   23   31 1   
    29   24   25 1   
    30   24   32 1   
    31   24   33 1   
    32   25   26 1   
    33   25   34 1   
    34   25   35 1   
    35   26   27 1   
    36   26   36 1   
    37   26   37 1   
    38   27   38 1   
    39   27   39 1   
    40   27   40 1   
    41   41   42 1   
    42   41   49 1   
    43   42   43 1   
    44   42   45 1   
    45   42   50 1   
    46   43   44 2   
    47   43   53 1   
    48   45   46 1   
    49   45   51 1   
    50   45   52 1   
    51   46   47 1   
    52   46   48 1   
    53   53   54 1   
    54   53   57 1   
    55   54   55 1   
    56   54   58 1   
    57   54   59 1   
    58   55   56 2   
    59   55   60 1   
    60   60   61 1   
    61   60   68 1   
    62   61   62 1   
    63   61   64 1   
    64   61   69 1   
    65   62   63 2   
    66   62   74 1   
    67   64   65 1   
    68   64   70 1   
    69   64   71 1   
    70   65   66 1   
    71   65   67 2   
    72   66   72 1   
    73   66   73 1   
    74   74   75 1   
    75   74   78 1   
    76   75   76 1   
    77   75   79 1   
    78   75   80 1   
    79   76   77 2   
    80   76   81 1   
    81   81   82 1   
    82   81   93 1   
    83   82   83 1   
    84   82   85 1   
    85   82   94 1   
    86   83   84 2   
    87   83  102 1   
    88   85   86 1   
    89   85   95 1   
    90   85   96 1   
    91   86   87 ar  
    92   86   88 ar  
    93   87   89 ar  
    94   87   97 1   
    95   88   90 ar  
    96   88   98 1   
    97   89   91 ar  
    98   89   99 1   
    99   90   91 ar  
   100   90  100 1   
   101   91   92 1   
   102   92  101 1   
   103  102  103 1   
   104  102  110 1   
   105  103  104 1   
   106  103  106 1   
   107  103  111 1   
   108  104  105 2   
   109  104  121 1   
   110  106  107 1   
   111  106  108 1   
   112  106  112 1   
   113  107  109 1   
   114  107  113 1   
   115  107  114 1   
   116  108  115 1   
   117  108  116 1   
   118  108  117 1   
   119  109  118 1   
   120  109  119 1   
   121  109  120 1   
   122  121  122 1   
   123  121  127 1   
   124  122  123 1   
   125  122  125 1   
   126  122  128 1   
   127  123  124 2   
   128  123  132 1   
   129  125  126 1   
   130  125  129 1   
   131  125  130 1   
   132  126  131 1   
   133  132  133 1   
   134  132  137 1   
   135  133  134 1   
   136  133  136 1   
   137  133  138 1   
   138  134  135 2   
   139  134  142 1   
   140  136  139 1   
   141  136  140 1   
   142  136  141 1   
   143  142  143 1   
   144  142  147 1   
   145  143  144 1   
   146  143  146 1   
   147  143  148 1   
   148  144  145 2   
   149  144  152 1   
   150  146  149 1   
   151  146  150 1   
   152  146  151 1   
   153  152  153 1   
   154  152  161 1   
   155  153  154 1   
   156  153  156 1   
   157  153  162 1   
   158  154  155 2   
   159  154  167 1   
   160  156  157 1   
   161  156  163 1   
   162  156  164 1   
   163  157  158 1   
   164  157  165 1   
   165  157  166 1   
   166  158  159 1   
   167  158  160 1   
   168  167  168 1   
   169  167  172 1   
   170  168  169 1   
   171  168  170 1   
   172  168  171 1   
   173  174  175 1   
   174  174  176 1   
@<TRIPOS>SUBSTRUCTURE
     1 MOL         1 TEMP              0 ****  ****    0 ROOT
