@<TRIPOS>MOLECULE
MOL
  186   183     1     0     0
SMALL
resp


@<TRIPOS>ATOM
      1 C1         -0.8210   -2.8350   -6.1180 c3        1 MOL     -0.337296
      2 C2         -0.9120   -2.6650   -4.6070 c         1 MOL      0.717405
      3 O1         -0.0680   -3.1260   -3.8030 o         1 MOL     -0.607111
      4 H1         -1.0940   -3.8550   -6.3860 hc        1 MOL      0.074506
      5 H2         -1.5030   -2.1370   -6.6040 hc        1 MOL      0.074506
      6 H3          0.1990   -2.6340   -6.4470 hc        1 MOL      0.074506
      7 N1         -1.8510   -1.8680   -4.2320 n         1 MOL     -0.464497
      8 C3         -2.2520   -1.7690   -2.8310 c3        1 MOL      0.094931
      9 C4         -2.9670   -3.0760   -2.4350 c         1 MOL      0.378578
     10 O2         -3.8290   -3.5710   -3.1910 o         1 MOL     -0.567711
     11 C5         -3.2880   -0.6360   -2.9210 c3        1 MOL     -0.238377
     12 C6         -4.1300   -0.4050   -1.6470 c         1 MOL      0.910011
     13 O3         -5.0720    0.3570   -1.7820 o         1 MOL     -0.760480
     14 O4         -3.7450   -0.8810   -0.5710 o         1 MOL     -0.760480
     15 H4         -2.4500   -1.4400   -4.9190 hn        1 MOL      0.299513
     16 H5         -1.3780   -1.5610   -2.1970 h1        1 MOL      0.046593
     17 H6         -3.8620   -0.8550   -3.8220 hc        1 MOL      0.033522
     18 H7         -2.8270    0.3460   -3.0440 hc        1 MOL      0.033522
     19 N2         -2.7890   -3.5500   -1.2030 n         1 MOL     -0.033957
     20 C7         -3.0980   -4.8950   -0.6530 c3        1 MOL     -0.087154
     21 C8         -4.1000   -4.9390    0.5130 c         1 MOL      0.506689
     22 O5         -4.9350   -5.8430    0.6140 o         1 MOL     -0.567946
     23 C9         -1.7330   -5.5440   -0.2800 c3        1 MOL      0.143586
     24 C10        -0.6330   -5.3560   -1.3230 c3        1 MOL     -0.001845
     25 C11        -1.8300   -7.0130    0.1520 c3        1 MOL     -0.078934
     26 C12         0.7640   -6.0040   -1.0070 c3        1 MOL     -0.309400
     27 H8         -2.0770   -3.0170   -0.7220 hn        1 MOL     -0.025849
     28 H9         -3.4970   -5.5100   -1.4580 h1        1 MOL      0.058747
     29 H10        -1.4060   -5.0890    0.6600 hc        1 MOL      0.007235
     30 H11        -0.3860   -4.2960   -1.3960 hc        1 MOL      0.036948
     31 H12        -0.8890   -5.6610   -2.3370 hc        1 MOL      0.036948
     32 H13        -2.1050   -7.6410   -0.6980 hc        1 MOL      0.003694
     33 H14        -0.8910   -7.4280    0.5170 hc        1 MOL      0.003694
     34 H15        -2.6400   -7.2590    0.8390 hc        1 MOL      0.003694
     35 H16         1.1160   -5.5820   -0.0610 hc        1 MOL      0.073359
     36 H17         0.6600   -7.0850   -0.8940 hc        1 MOL      0.073359
     37 H18         1.4480   -5.7080   -1.8080 hc        1 MOL      0.073359
     38 N3         -4.0930   -3.9190    1.3820 n         1 MOL     -0.386616
     39 C13        -5.2440   -3.7220    2.3170 c3        1 MOL     -0.034650
     40 C14        -6.4020   -2.9120    1.6460 c         1 MOL      0.398974
     41 O6         -7.3780   -2.6220    2.2730 o         1 MOL     -0.527012
     42 C15        -4.8230   -3.1460    3.6720 c3        1 MOL     -0.061597
     43 C16        -3.9330   -1.9320    3.6680 c         1 MOL      0.769289
     44 O7         -3.8370   -1.2170    2.6680 o         1 MOL     -0.711868
     45 O8         -3.3350   -1.6150    4.6950 o         1 MOL     -0.711868
     46 H19        -3.4930   -3.1210    1.1940 hn        1 MOL      0.248158
     47 H20        -5.6280   -4.6570    2.7280 h1        1 MOL      0.108770
     48 H21        -4.2130   -3.8430    4.2470 hc        1 MOL      0.019829
     49 H22        -5.6300   -2.9850    4.3830 hc        1 MOL      0.019829
     50 N4         -6.1720   -2.4030    0.4240 n         1 MOL     -0.096389
     51 C17        -7.3130   -1.8490   -0.2980 c3        1 MOL     -0.462273
     52 C18        -7.7890   -0.5080    0.3290 c         1 MOL      0.565608
     53 O9         -8.8900   -0.0160   -0.0350 o         1 MOL     -0.622084
     54 H23        -5.4090   -2.6970   -0.1730 hn        1 MOL      0.233036
     55 H24        -8.2200   -2.4510   -0.2110 h1        1 MOL      0.170345
     56 H25        -7.0350   -1.7080   -1.3380 h1        1 MOL      0.170345
     57 N5         -6.9780    0.1920    1.1340 n         1 MOL     -0.191722
     58 C19        -7.2720    1.5450    1.6580 c3        1 MOL     -0.102033
     59 C20        -7.1400    2.6670    0.5570 c         1 MOL      0.670229
     60 O10        -7.4550    3.7700    0.8780 o         1 MOL     -0.602197
     61 C21        -6.3700    1.8860    2.9060 c3        1 MOL      0.091428
     62 C22        -4.8680    2.1070    2.5670 c         1 MOL      0.556633
     63 O11        -4.4670    1.8310    1.3810 o         1 MOL     -0.685320
     64 O12        -4.0870    2.8250    3.2600 o         1 MOL     -0.685320
     65 H26        -6.0740   -0.1790    1.3990 hn        1 MOL      0.192617
     66 H27        -8.3260    1.5270    1.9100 h1        1 MOL      0.058175
     67 H28        -6.4580    1.0320    3.5800 hc        1 MOL     -0.019733
     68 H29        -6.7970    2.7460    3.4240 hc        1 MOL     -0.019733
     69 N6         -6.8250    2.2850   -0.6670 n         1 MOL     -0.452329
     70 C23        -6.7110    3.2520   -1.8000 c3        1 MOL      0.074829
     71 C24        -5.3810    3.9400   -1.9090 c         1 MOL      0.443075
     72 O13        -5.4150    5.0160   -2.5660 o         1 MOL     -0.599764
     73 H30        -6.4680    1.3420   -0.7530 hn        1 MOL      0.328713
     74 H31        -7.5540    3.9050   -1.6240 h1        1 MOL      0.039589
     75 H32        -6.9340    2.7750   -2.7570 h1        1 MOL      0.039589
     76 N7         -4.2680    3.3460   -1.4520 n         1 MOL     -0.200786
     77 C25        -2.8790    3.8940   -1.5100 c3        1 MOL      0.068156
     78 C26        -1.7580    2.8910   -1.4930 c         1 MOL      0.427337
     79 O14        -1.9550    1.8230   -0.9450 o         1 MOL     -0.605209
     80 C27        -2.6460    4.8280   -0.2690 c3        1 MOL     -0.254388
     81 C28        -3.4650    6.0770   -0.4120 c3        1 MOL     -0.032671
     82 C29        -3.0600    7.2020    0.5470 c         1 MOL      0.575485
     83 N8         -3.4530    7.1940    1.8040 n         1 MOL     -0.822824
     84 O15        -2.2700    8.1040    0.2130 o         1 MOL     -0.595953
     85 H33        -4.4290    2.4200   -1.0800 hn        1 MOL      0.197081
     86 H34        -2.8570    4.4090   -2.4730 h1        1 MOL      0.050513
     87 H35        -1.5910    5.0890   -0.2880 hc        1 MOL      0.134569
     88 H36        -2.9840    4.3450    0.6460 hc        1 MOL      0.134569
     89 H37        -4.5120    5.8750   -0.1960 hc        1 MOL      0.040580
     90 H38        -3.3200    6.4470   -1.4310 hc        1 MOL      0.040580
     91 H39        -4.0420    6.4420    2.1260 hn        1 MOL      0.386075
     92 H40        -3.0460    7.9320    2.3680 hn        1 MOL      0.386075
     93 N9         -0.6080    3.1530   -2.1090 n         1 MOL     -0.276821
     94 C30         0.5300    2.1800   -2.1900 c3        1 MOL      0.036110
     95 C31         1.6520    2.7560   -1.3600 c         1 MOL      0.288250
     96 O16         2.2640    3.7780   -1.7160 o         1 MOL     -0.533590
     97 C32         0.9630    2.0180   -3.6800 c3        1 MOL      0.250512
     98 C33         1.9690    0.8680   -3.9220 c3        1 MOL     -0.281452
     99 C34        -0.2930    1.6760   -4.4760 c3        1 MOL     -0.281452
    100 H41        -0.5600    3.9830   -2.6810 hn        1 MOL      0.243695
    101 H42         0.4120    1.1600   -1.8010 h1        1 MOL      0.158498
    102 H43         1.4680    2.9390   -4.0030 hc        1 MOL     -0.035550
    103 H44         2.1020    0.7580   -5.0020 hc        1 MOL      0.051963
    104 H45         2.9270    1.2510   -3.5840 hc        1 MOL      0.051963
    105 H46         1.6150   -0.0630   -3.4880 hc        1 MOL      0.051963
    106 H47        -1.0870    2.4130   -4.3160 hc        1 MOL      0.051963
    107 H48        -0.0990    1.7010   -5.5360 hc        1 MOL      0.051963
    108 H49        -0.5870    0.6450   -4.2740 hc        1 MOL      0.051963
    109 N10         1.7610    2.2000   -0.1440 n         1 MOL     -0.196026
    110 C35         2.8890    2.5020    0.7390 c3        1 MOL      0.126276
    111 C36         4.2560    1.9180    0.2490 c         1 MOL      0.322618
    112 O17         4.2500    0.9520   -0.5710 o         1 MOL     -0.315042
    113 C37         2.5870    2.2300    2.2510 c3        1 MOL     -0.437471
    114 C38         3.4200    1.0230    2.8280 c         1 MOL      0.581167
    115 N11         4.4020    1.2090    3.7380 n         1 MOL     -0.655278
    116 O18         3.3320   -0.0720    2.3730 o         1 MOL     -0.370745
    117 H50         1.1250    1.4420    0.0650 hn        1 MOL      0.170804
    118 H51         2.9430    3.5750    0.6020 h1        1 MOL      0.059011
    119 H52         1.5650    1.8690    2.3640 hc        1 MOL      0.153587
    120 H53         2.7280    3.1340    2.8540 hc        1 MOL      0.153587
    121 H54         4.5850    2.1420    4.0960 hn        1 MOL      0.297478
    122 H55         5.0010    0.4300    3.9800 hn        1 MOL      0.297478
    123 N12         5.3620    2.3620    0.8010 n         1 MOL     -0.376547
    124 C39         6.6830    1.9660    0.2840 c3        1 MOL      0.053690
    125 C40         6.9530    0.4330    0.0850 c         1 MOL      0.590351
    126 O19         7.5570   -0.0360   -0.8380 o         1 MOL     -0.496390
    127 C41         7.8300    2.4910    1.1320 c3        1 MOL     -0.035739
    128 C42         9.2240    2.2320    0.5690 ca        1 MOL     -0.152692
    129 C43         9.6680    2.9430   -0.6070 ca        1 MOL     -0.034151
    130 C44        10.0430    1.1320    1.0880 ca        1 MOL     -0.034151
    131 C45        10.9240    2.5700   -1.0990 ca        1 MOL     -0.356987
    132 C46        11.2040    0.8040    0.5230 ca        1 MOL     -0.356987
    133 C47        11.6740    1.4680   -0.6210 ca        1 MOL      0.470420
    134 O20        12.7940    0.9180   -1.1620 oh        1 MOL     -0.570028
    135 H56         5.3310    3.0290    1.5500 hn        1 MOL      0.257847
    136 H57         6.8330    2.4270   -0.6900 h1        1 MOL      0.052479
    137 H58         7.8400    1.9710    2.0910 hc        1 MOL      0.041450
    138 H59         7.7160    3.5410    1.4170 hc        1 MOL      0.041450
    139 H60         9.1160    3.7740   -1.0050 ha        1 MOL      0.125063
    140 H61         9.7770    0.5730    1.9730 ha        1 MOL      0.125063
    141 H62        11.3180    3.0780   -1.9590 ha        1 MOL      0.149230
    142 H63        11.7720   -0.0560    0.8270 ha        1 MOL      0.149230
    143 H64        12.9160    0.0540   -0.7610 ho        1 MOL      0.396768
    144 N13         6.3510   -0.3270    1.0200 n         1 MOL     -0.316217
    145 C48         6.4820   -1.7850    1.1450 c3        1 MOL     -0.048720
    146 C49         5.6220   -2.4420   -0.0060 c         1 MOL      0.283159
    147 O21         6.0580   -3.4220   -0.6410 o         1 MOL     -0.524200
    148 C50         5.9200   -2.2600    2.4890 c3        1 MOL      0.182156
    149 C51         6.6120   -1.7230    3.7340 c3        1 MOL     -0.363565
    150 C52         5.9390   -2.1900    5.0530 c         1 MOL      0.779347
    151 O22         6.2700   -3.2110    5.6690 o         1 MOL     -0.729396
    152 O23         5.0470   -1.4450    5.4340 o         1 MOL     -0.729396
    153 H65         5.6740    0.1500    1.5920 hn        1 MOL      0.108816
    154 H66         7.4910   -2.1940    1.0730 h1        1 MOL      0.089856
    155 H67         5.9530   -3.3530    2.4660 hc        1 MOL      0.007597
    156 H68         4.8510   -2.0540    2.4740 hc        1 MOL      0.007597
    157 H69         6.6130   -0.6340    3.6640 hc        1 MOL      0.036659
    158 H70         7.6670   -1.9760    3.7710 hc        1 MOL      0.036659
    159 N14         4.4450   -1.9290   -0.2550 n         1 MOL     -0.075255
    160 C53         3.5810   -2.3380   -1.4040 c3        1 MOL     -0.166360
    161 C54         4.2250   -2.0190   -2.7300 c         1 MOL      0.454754
    162 O24         4.0920   -2.7760   -3.6850 o         1 MOL     -0.550025
    163 C55         2.2120   -1.7400   -1.3220 c3        1 MOL     -0.051367
    164 C56         1.4510   -2.0210    0.0280 c3        1 MOL      0.059040
    165 C57         0.1480   -1.2660    0.2200 c         1 MOL      0.596410
    166 O25        -0.9260   -1.9090    0.3390 o         1 MOL     -0.650821
    167 O26         0.1730   -0.0340    0.4110 o         1 MOL     -0.650821
    168 H71         4.1710   -1.1610    0.3330 hn        1 MOL      0.102502
    169 H72         3.6110   -3.4260   -1.3250 h1        1 MOL      0.126863
    170 H73         1.5950   -2.0150   -2.1700 hc        1 MOL      0.103226
    171 H74         2.2830   -0.6600   -1.3550 hc        1 MOL      0.103226
    172 H75         2.0650   -1.7970    0.9070 hc        1 MOL     -0.001580
    173 H76         1.2860   -3.0920    0.1260 hc        1 MOL     -0.001580
    174 N15         4.9230   -0.8730   -2.7470 n         1 MOL     -0.001988
    175 C58         5.5760   -0.4260   -3.9640 c3        1 MOL     -0.160550
    176 H77         5.5710   -1.2340   -4.6960 h1        1 MOL      0.055335
    177 H78         5.0430    0.4340   -4.3700 h1        1 MOL      0.055335
    178 H79         6.6050   -0.1440   -3.7420 h1        1 MOL      0.055335
    179 H80         5.1200   -0.3320   -1.9260 hn        1 MOL      0.058809
    180 Ca1        -2.4110    0.1700    1.1920 Ca        1 MOL      1.706783
    181 O27        -1.2400   -0.3840    3.6150 oh        1 MOL     -0.886750
    182 H81        -0.6620   -0.0150    4.2880 ho        1 MOL      0.401370
    183 H82        -2.0080   -0.6780    4.0960 ho        1 MOL      0.401370
    184 O28        -1.4540    2.5150    2.7030 oh        1 MOL     -0.886750
    185 H83        -1.1930    2.2330    3.5800 ho        1 MOL      0.401370
    186 H84        -2.3270    2.8880    2.8190 ho        1 MOL      0.401370
@<TRIPOS>BOND
     1    1    2 1   
     2    1    4 1   
     3    1    5 1   
     4    1    6 1   
     5    2    3 2   
     6    2    7 1   
     7    7    8 1   
     8    7   15 1   
     9    8    9 1   
    10    8   11 1   
    11    8   16 1   
    12    9   10 2   
    13    9   19 1   
    14   11   12 1   
    15   11   17 1   
    16   11   18 1   
    17   12   13 1   
    18   12   14 1   
    19   19   20 1   
    20   19   27 1   
    21   20   21 1   
    22   20   23 1   
    23   20   28 1   
    24   21   22 2   
    25   21   38 1   
    26   23   24 1   
    27   23   25 1   
    28   23   29 1   
    29   24   26 1   
    30   24   30 1   
    31   24   31 1   
    32   25   32 1   
    33   25   33 1   
    34   25   34 1   
    35   26   35 1   
    36   26   36 1   
    37   26   37 1   
    38   38   39 1   
    39   38   46 1   
    40   39   40 1   
    41   39   42 1   
    42   39   47 1   
    43   40   41 2   
    44   40   50 1   
    45   42   43 1   
    46   42   48 1   
    47   42   49 1   
    48   43   44 1   
    49   43   45 1   
    50   50   51 1   
    51   50   54 1   
    52   51   52 1   
    53   51   55 1   
    54   51   56 1   
    55   52   53 2   
    56   52   57 1   
    57   57   58 1   
    58   57   65 1   
    59   58   59 1   
    60   58   61 1   
    61   58   66 1   
    62   59   60 2   
    63   59   69 1   
    64   61   62 1   
    65   61   67 1   
    66   61   68 1   
    67   62   63 1   
    68   62   64 1   
    69   69   70 1   
    70   69   73 1   
    71   70   71 1   
    72   70   74 1   
    73   70   75 1   
    74   71   72 2   
    75   71   76 1   
    76   76   77 1   
    77   76   85 1   
    78   77   78 1   
    79   77   80 1   
    80   77   86 1   
    81   78   79 2   
    82   78   93 1   
    83   80   81 1   
    84   80   87 1   
    85   80   88 1   
    86   81   82 1   
    87   81   89 1   
    88   81   90 1   
    89   82   83 1   
    90   82   84 2   
    91   83   91 1   
    92   83   92 1   
    93   93   94 1   
    94   93  100 1   
    95   94   95 1   
    96   94   97 1   
    97   94  101 1   
    98   95   96 2   
    99   95  109 1   
   100   97   98 1   
   101   97   99 1   
   102   97  102 1   
   103   98  103 1   
   104   98  104 1   
   105   98  105 1   
   106   99  106 1   
   107   99  107 1   
   108   99  108 1   
   109  109  110 1   
   110  109  117 1   
   111  110  111 1   
   112  110  113 1   
   113  110  118 1   
   114  111  112 2   
   115  111  123 1   
   116  113  114 1   
   117  113  119 1   
   118  113  120 1   
   119  114  115 1   
   120  114  116 2   
   121  115  121 1   
   122  115  122 1   
   123  123  124 1   
   124  123  135 1   
   125  124  125 1   
   126  124  127 1   
   127  124  136 1   
   128  125  126 2   
   129  125  144 1   
   130  127  128 1   
   131  127  137 1   
   132  127  138 1   
   133  128  129 ar  
   134  128  130 ar  
   135  129  131 ar  
   136  129  139 1   
   137  130  132 ar  
   138  130  140 1   
   139  131  133 ar  
   140  131  141 1   
   141  132  133 ar  
   142  132  142 1   
   143  133  134 1   
   144  134  143 1   
   145  144  145 1   
   146  144  153 1   
   147  145  146 1   
   148  145  148 1   
   149  145  154 1   
   150  146  147 2   
   151  146  159 1   
   152  148  149 1   
   153  148  155 1   
   154  148  156 1   
   155  149  150 1   
   156  149  157 1   
   157  149  158 1   
   158  150  151 1   
   159  150  152 1   
   160  159  160 1   
   161  159  168 1   
   162  160  161 1   
   163  160  163 1   
   164  160  169 1   
   165  161  162 2   
   166  161  174 1   
   167  163  164 1   
   168  163  170 1   
   169  163  171 1   
   170  164  165 1   
   171  164  172 1   
   172  164  173 1   
   173  165  166 1   
   174  165  167 1   
   175  174  175 1   
   176  174  179 1   
   177  175  176 1   
   178  175  177 1   
   179  175  178 1   
   180  181  182 1   
   181  181  183 1   
   182  184  185 1   
   183  184  186 1   
@<TRIPOS>SUBSTRUCTURE
     1 MOL         1 TEMP              0 ****  ****    0 ROOT
