@<TRIPOS>MOLECULE
MOL
  183   181     1     0     0
SMALL
resp


@<TRIPOS>ATOM
      1 C1         -0.5620    1.0750    6.4680 c3        1 MOL     -0.295009
      2 C2         -0.9930    1.2300    4.9780 c         1 MOL      0.737742
      3 O1         -0.2620    1.9000    4.2480 o         1 MOL     -0.557102
      4 H1         -0.4370    0.0180    6.7010 hc        1 MOL      0.062818
      5 H2          0.3820    1.5960    6.6290 hc        1 MOL      0.062818
      6 H3         -1.3290    1.5010    7.1140 hc        1 MOL      0.062818
      7 N1         -2.1900    0.7070    4.6060 n         1 MOL     -0.657518
      8 C3         -2.8240    0.9310    3.2410 c3        1 MOL      0.266421
      9 C4         -3.2250    2.3480    2.9620 c         1 MOL      0.383959
     10 O2         -4.2480    2.8650    3.5150 o         1 MOL     -0.572167
     11 C5         -4.0070    0.0200    2.9340 c3        1 MOL     -0.007481
     12 C6         -4.5490    0.1970    1.5290 c         1 MOL      0.594262
     13 O3         -5.8090    0.0110    1.4380 o         1 MOL     -0.556208
     14 O4         -3.8470    0.5380    0.5350 o         1 MOL     -0.556208
     15 H4         -2.6540    0.1310    5.2820 hn        1 MOL      0.308938
     16 H5         -2.0800    0.5690    2.5370 h1        1 MOL      0.041969
     17 H6         -4.7950    0.1870    3.6810 hc        1 MOL     -0.013474
     18 H7         -3.6060   -0.9790    3.1380 hc        1 MOL     -0.013474
     19 N2         -2.5050    3.0430    2.0560 n         1 MOL     -0.232840
     20 C7         -2.6990    4.4090    1.4850 c3        1 MOL      0.017862
     21 C8         -3.9750    4.3950    0.5960 c         1 MOL      0.413717
     22 O5         -4.5660    5.4530    0.5080 o         1 MOL     -0.563744
     23 C9         -1.4380    4.9580    0.7190 c3        1 MOL      0.234927
     24 C10        -0.1290    4.8470    1.5840 c3        1 MOL     -0.043977
     25 C11        -1.6640    6.3610    0.2110 c3        1 MOL     -0.266090
     26 C12        -0.0730    5.7330    2.7990 c3        1 MOL     -0.287558
     27 H8         -1.8580    2.5030    1.5050 hn        1 MOL      0.131108
     28 H9         -2.9480    5.1540    2.2340 h1        1 MOL      0.072493
     29 H10        -1.2870    4.3180   -0.1450 hc        1 MOL      0.002220
     30 H11         0.6800    5.1060    0.9140 hc        1 MOL      0.067853
     31 H12        -0.0560    3.8270    1.9680 hc        1 MOL      0.067853
     32 H13        -1.9360    6.9750    1.0680 hc        1 MOL      0.058584
     33 H14        -0.8150    6.7620   -0.3400 hc        1 MOL      0.058584
     34 H15        -2.4560    6.4580   -0.5250 hc        1 MOL      0.058584
     35 H16         0.2460    6.7260    2.4920 hc        1 MOL      0.052520
     36 H17        -1.0860    5.7400    3.1800 hc        1 MOL      0.052520
     37 H18         0.6190    5.3030    3.5330 hc        1 MOL      0.052520
     38 N3         -4.4020    3.3000   -0.0340 n         1 MOL     -0.102005
     39 C13        -5.3840    3.4400   -1.1570 c3        1 MOL     -0.160039
     40 C14        -6.8120    3.0270   -0.9080 c         1 MOL      0.486509
     41 O6         -7.6950    3.6210   -1.5620 o         1 MOL     -0.556327
     42 C15        -5.0460    2.5400   -2.3260 c3        1 MOL      0.037576
     43 C16        -3.6410    2.5740   -2.8750 c         1 MOL      0.566908
     44 O7         -3.0630    3.7090   -3.1750 o         1 MOL     -0.661995
     45 O8         -3.0440    1.4860   -2.9160 o         1 MOL     -0.661995
     46 H19        -3.9790    2.3960    0.0970 hn        1 MOL      0.096079
     47 H20        -5.3860    4.4580   -1.5370 h1        1 MOL      0.122305
     48 H21        -5.7170    2.7850   -3.1450 hc        1 MOL     -0.002277
     49 H22        -5.2520    1.5040   -2.0520 hc        1 MOL     -0.002277
     50 N4         -7.0920    2.0520   -0.0220 n         1 MOL     -0.184412
     51 C17        -8.4060    1.4460    0.0120 c3        1 MOL     -0.228509
     52 C18        -8.5690    0.2860   -0.9340 c         1 MOL      0.567688
     53 O9         -9.5320   -0.0030   -1.5910 o         1 MOL     -0.598365
     54 H23        -6.3240    1.7380    0.5500 hn        1 MOL      0.160345
     55 H24        -9.0850    2.2570   -0.2630 h1        1 MOL      0.094710
     56 H25        -8.6900    1.0320    0.9810 h1        1 MOL      0.094710
     57 N5         -7.4560   -0.4260   -1.0230 n         1 MOL     -0.125891
     58 C19        -7.3250   -1.8000   -1.6200 c3        1 MOL     -0.054291
     59 C20        -7.1630   -3.0050   -0.6320 c         1 MOL      0.342123
     60 O10        -7.6030   -4.1640   -0.8010 o         1 MOL     -0.538961
     61 C21        -6.2360   -1.9370   -2.6670 c3        1 MOL     -0.132466
     62 C22        -4.8300   -1.7400   -2.1240 c         1 MOL      0.772515
     63 O11        -4.0040   -1.4740   -2.9700 o         1 MOL     -0.759928
     64 O12        -4.5680   -1.8400   -0.8930 o         1 MOL     -0.759928
     65 H26        -6.6480   -0.1330   -0.5030 hn        1 MOL      0.040919
     66 H27        -8.2310   -1.9320   -2.2120 h1        1 MOL      0.086010
     67 H28        -6.3640   -1.2360   -3.4930 hc        1 MOL      0.046462
     68 H29        -6.2690   -2.9470   -3.0800 hc        1 MOL      0.046462
     69 N6         -6.5780   -2.7520    0.5570 n         1 MOL     -0.097716
     70 C23        -6.2250   -3.6900    1.6750 c3        1 MOL     -0.045717
     71 C24        -5.0470   -4.6130    1.4490 c         1 MOL      0.488112
     72 O13        -5.0280   -5.7750    1.8420 o         1 MOL     -0.557063
     73 H30        -6.2180   -1.8320    0.7630 hn        1 MOL      0.092591
     74 H31        -7.1050   -4.2780    1.9330 h1        1 MOL      0.033508
     75 H32        -6.0680   -2.9960    2.5050 h1        1 MOL      0.033508
     76 N7         -4.0610   -4.0250    0.6860 n         1 MOL     -0.084175
     77 C25        -2.6870   -4.5260    0.5760 c3        1 MOL     -0.198751
     78 C26        -1.5810   -3.3860    0.7240 c         1 MOL      0.555960
     79 O14        -1.9660   -2.2240    0.5570 o         1 MOL     -0.644624
     80 C27        -2.5210   -5.3940   -0.6600 c3        1 MOL     -0.063746
     81 C28        -2.6720   -5.0050   -2.1040 c3        1 MOL     -0.264038
     82 C29        -1.7620   -3.8580   -2.6350 c         1 MOL      0.517032
     83 N8         -1.3090   -4.0120   -3.8530 n         1 MOL     -0.670670
     84 O15        -1.4970   -2.7570   -2.1550 o         1 MOL     -0.439708
     85 H33        -4.1730   -3.0830    0.3480 hn        1 MOL      0.235413
     86 H34        -2.4530   -5.1370    1.4450 h1        1 MOL      0.047421
     87 H35        -3.2580   -6.1880   -0.5130 hc        1 MOL      0.039705
     88 H36        -1.5000   -5.7780   -0.6090 hc        1 MOL      0.039705
     89 H37        -3.7460   -4.8560   -2.2130 hc        1 MOL      0.114207
     90 H38        -2.4130   -5.9270   -2.6170 hc        1 MOL      0.114207
     91 H39        -1.5870   -4.8390   -4.3560 hn        1 MOL      0.320578
     92 H40        -0.9350   -3.2210   -4.3460 hn        1 MOL      0.320578
     93 N9         -0.3800   -3.8060    1.0950 n         1 MOL     -0.280382
     94 C30         0.7480   -2.9160    1.4900 c3        1 MOL     -0.006260
     95 C31         1.9870   -3.3090    0.6810 c         1 MOL      0.233058
     96 O16         2.6070   -4.3620    0.8760 o         1 MOL     -0.522430
     97 C32         1.0890   -2.9980    2.9750 c3        1 MOL      0.119330
     98 C33         2.2080   -2.0770    3.4290 c3        1 MOL     -0.107775
     99 C34        -0.1930   -2.6730    3.7700 c3        1 MOL     -0.107775
    100 H41        -0.1360   -4.7840    1.0940 hn        1 MOL      0.278380
    101 H42         0.5190   -1.8760    1.2700 h1        1 MOL      0.120859
    102 H43         1.4350   -4.0260    3.1460 hc        1 MOL      0.010008
    103 H44         3.1990   -2.2220    2.9940 hc        1 MOL      0.011094
    104 H45         2.0660   -0.9960    3.4300 hc        1 MOL      0.011094
    105 H46         2.5060   -2.3730    4.4370 hc        1 MOL      0.011094
    106 H47        -0.7530   -1.7590    3.5660 hc        1 MOL      0.011094
    107 H48        -0.7770   -3.5920    3.6470 hc        1 MOL      0.011094
    108 H49         0.0030   -2.6790    4.8350 hc        1 MOL      0.011094
    109 N10         2.1210   -2.4590   -0.3150 n         1 MOL     -0.148328
    110 C35         3.2660   -2.6600   -1.2660 c3        1 MOL      0.275227
    111 C36         4.5740   -1.9680   -0.6290 c         1 MOL      0.213012
    112 O17         4.4830   -1.3060    0.4340 o         1 MOL     -0.159916
    113 C37         2.8540   -2.2870   -2.7330 c3        1 MOL     -0.231715
    114 C38         3.0350   -0.8020   -2.9820 c         1 MOL      0.758938
    115 N11         1.9510   -0.0300   -3.0020 n         1 MOL     -0.886620
    116 O18         4.1230   -0.3160   -3.2130 o         1 MOL     -0.573814
    117 H50         1.4630   -1.7070   -0.4910 hn        1 MOL      0.054401
    118 H51         3.5040   -3.7190   -1.3360 h1        1 MOL      0.030368
    119 H52         1.8160   -2.5680   -2.9320 hc        1 MOL      0.040268
    120 H53         3.5410   -2.7150   -3.4530 hc        1 MOL      0.040268
    121 H54         1.0850   -0.3560   -2.6050 hn        1 MOL      0.427743
    122 H55         1.9520    0.9600   -3.1960 hn        1 MOL      0.427743
    123 N12         5.7290   -2.1350   -1.3460 n         1 MOL     -0.572756
    124 C39         6.9670   -1.5720   -0.8020 c3        1 MOL      0.291062
    125 C40         7.0610   -0.0490   -0.7340 c         1 MOL      0.430917
    126 O19         7.7370    0.5140    0.1200 o         1 MOL     -0.480425
    127 C41         8.1530   -2.2070   -1.5330 c3        1 MOL      0.021333
    128 C42         9.4410   -1.9630   -0.7520 ca        1 MOL      0.012132
    129 C43         9.6810   -2.4120    0.5950 ca        1 MOL     -0.271491
    130 C44        10.3660   -1.0880   -1.3020 ca        1 MOL     -0.271491
    131 C45        10.8320   -1.9800    1.2550 ca        1 MOL     -0.092910
    132 C46        11.5220   -0.6380   -0.6090 ca        1 MOL     -0.092910
    133 C47        11.7510   -1.1160    0.6660 ca        1 MOL      0.202456
    134 O20        12.8560   -0.6980    1.3790 oh        1 MOL     -0.487499
    135 H56         5.7660   -2.8140   -2.0870 hn        1 MOL      0.322076
    136 H57         7.0000   -1.9700    0.2090 h1        1 MOL      0.048954
    137 H58         8.2680   -1.7910   -2.5280 hc        1 MOL      0.012388
    138 H59         8.0370   -3.2710   -1.7370 hc        1 MOL      0.012388
    139 H60         8.9090   -2.9790    1.0830 ha        1 MOL      0.156971
    140 H61        10.1470   -0.6130   -2.2360 ha        1 MOL      0.156971
    141 H62        11.0650   -2.3840    2.2190 ha        1 MOL      0.106896
    142 H63        12.2170    0.0310   -1.0720 ha        1 MOL      0.106896
    143 H64        13.4250   -0.1460    0.8300 ho        1 MOL      0.354007
    144 N13         6.3030    0.6710   -1.5490 n         1 MOL     -0.407618
    145 C48         6.1130    2.1680   -1.3740 c3        1 MOL     -0.014061
    146 C49         5.3040    2.4680   -0.0530 c         1 MOL      0.289870
    147 O21         5.5420    3.5300    0.5150 o         1 MOL     -0.468695
    148 C50         5.3720    2.6360   -2.6150 c3        1 MOL      0.115647
    149 C51         5.2360    4.1320   -2.6360 c3        1 MOL     -0.468314
    150 C52         4.5770    4.6700   -3.9140 c         1 MOL      0.757065
    151 O22         3.2990    4.6100   -4.0220 o         1 MOL     -0.748382
    152 O23         5.2240    5.1220   -4.9000 o         1 MOL     -0.748382
    153 H65         5.7000    0.2670   -2.2510 hn        1 MOL      0.232771
    154 H66         7.0460    2.7300   -1.4560 h1        1 MOL      0.104752
    155 H67         4.3890    2.1640   -2.6040 hc        1 MOL      0.028183
    156 H68         5.9060    2.2420   -3.4830 hc        1 MOL      0.028183
    157 H69         6.2160    4.5790   -2.4740 hc        1 MOL      0.098692
    158 H70         4.6440    4.4520   -1.7760 hc        1 MOL      0.098692
    159 N14         4.3560    1.5510    0.3800 n         1 MOL     -0.015171
    160 C53         3.5820    1.6220    1.6000 c3        1 MOL     -0.046243
    161 C54         4.2910    1.1050    2.8880 c         1 MOL      0.486130
    162 O24         4.2270    1.7180    3.9610 o         1 MOL     -0.566969
    163 C55         2.2750    0.9280    1.3330 c3        1 MOL      0.152403
    164 C56         1.5290    1.5140    0.1250 c3        1 MOL      0.151537
    165 C57         0.1740    0.8210   -0.1750 c         1 MOL      0.475160
    166 O25        -0.8900    1.4060    0.1310 o         1 MOL     -0.646250
    167 O26         0.1200   -0.3260   -0.6430 o         1 MOL     -0.646250
    168 H71         4.3100    0.6650   -0.1080 hn        1 MOL     -0.037650
    169 H72         3.3420    2.6630    1.8370 h1        1 MOL      0.054087
    170 H73         1.6020    1.0710    2.1770 hc        1 MOL      0.006293
    171 H74         2.5590   -0.1160    1.2100 hc        1 MOL      0.006293
    172 H75         2.1880    1.3790   -0.7280 hc        1 MOL     -0.053065
    173 H76         1.3160    2.5730    0.2540 hc        1 MOL     -0.053065
    174 N15         4.9950   -0.0310    2.8080 n         1 MOL     -0.132006
    175 C58         5.8860   -0.5680    3.8630 c3        1 MOL     -0.029161
    176 H77         5.5990   -1.5940    4.0930 h1        1 MOL      0.037600
    177 H78         6.9180   -0.5500    3.5120 h1        1 MOL      0.037600
    178 H79         5.7970    0.0440    4.7610 h1        1 MOL      0.037600
    179 H80         4.8660   -0.5510    1.9570 hn        1 MOL      0.008798
    180 Ca1        -2.3270   -0.4900   -1.3080 Ca        1 MOL      1.698440
    181 O27        -0.8730   -0.3050   -3.5680 oh        1 MOL     -0.797315
    182 H81        -0.2460   -0.8610   -4.0240 ho        1 MOL      0.388737
    183 H82        -1.0260    0.4360   -4.1560 ho        1 MOL      0.388737
@<TRIPOS>BOND
     1    1    2 1   
     2    1    4 1   
     3    1    5 1   
     4    1    6 1   
     5    2    3 2   
     6    2    7 1   
     7    7    8 1   
     8    7   15 1   
     9    8    9 1   
    10    8   11 1   
    11    8   16 1   
    12    9   10 2   
    13    9   19 1   
    14   11   12 1   
    15   11   17 1   
    16   11   18 1   
    17   12   13 1   
    18   12   14 1   
    19   19   20 1   
    20   19   27 1   
    21   20   21 1   
    22   20   23 1   
    23   20   28 1   
    24   21   22 2   
    25   21   38 1   
    26   23   24 1   
    27   23   25 1   
    28   23   29 1   
    29   24   26 1   
    30   24   30 1   
    31   24   31 1   
    32   25   32 1   
    33   25   33 1   
    34   25   34 1   
    35   26   35 1   
    36   26   36 1   
    37   26   37 1   
    38   38   39 1   
    39   38   46 1   
    40   39   40 1   
    41   39   42 1   
    42   39   47 1   
    43   40   41 2   
    44   40   50 1   
    45   42   43 1   
    46   42   48 1   
    47   42   49 1   
    48   43   44 1   
    49   43   45 1   
    50   50   51 1   
    51   50   54 1   
    52   51   52 1   
    53   51   55 1   
    54   51   56 1   
    55   52   53 2   
    56   52   57 1   
    57   57   58 1   
    58   57   65 1   
    59   58   59 1   
    60   58   61 1   
    61   58   66 1   
    62   59   60 2   
    63   59   69 1   
    64   61   62 1   
    65   61   67 1   
    66   61   68 1   
    67   62   63 1   
    68   62   64 1   
    69   69   70 1   
    70   69   73 1   
    71   70   71 1   
    72   70   74 1   
    73   70   75 1   
    74   71   72 2   
    75   71   76 1   
    76   76   77 1   
    77   76   85 1   
    78   77   78 1   
    79   77   80 1   
    80   77   86 1   
    81   78   79 2   
    82   78   93 1   
    83   80   81 1   
    84   80   87 1   
    85   80   88 1   
    86   81   82 1   
    87   81   89 1   
    88   81   90 1   
    89   82   83 1   
    90   82   84 2   
    91   83   91 1   
    92   83   92 1   
    93   93   94 1   
    94   93  100 1   
    95   94   95 1   
    96   94   97 1   
    97   94  101 1   
    98   95   96 2   
    99   95  109 1   
   100   97   98 1   
   101   97   99 1   
   102   97  102 1   
   103   98  103 1   
   104   98  104 1   
   105   98  105 1   
   106   99  106 1   
   107   99  107 1   
   108   99  108 1   
   109  109  110 1   
   110  109  117 1   
   111  110  111 1   
   112  110  113 1   
   113  110  118 1   
   114  111  112 2   
   115  111  123 1   
   116  113  114 1   
   117  113  119 1   
   118  113  120 1   
   119  114  115 1   
   120  114  116 2   
   121  115  121 1   
   122  115  122 1   
   123  123  124 1   
   124  123  135 1   
   125  124  125 1   
   126  124  127 1   
   127  124  136 1   
   128  125  126 2   
   129  125  144 1   
   130  127  128 1   
   131  127  137 1   
   132  127  138 1   
   133  128  129 ar  
   134  128  130 ar  
   135  129  131 ar  
   136  129  139 1   
   137  130  132 ar  
   138  130  140 1   
   139  131  133 ar  
   140  131  141 1   
   141  132  133 ar  
   142  132  142 1   
   143  133  134 1   
   144  134  143 1   
   145  144  145 1   
   146  144  153 1   
   147  145  146 1   
   148  145  148 1   
   149  145  154 1   
   150  146  147 2   
   151  146  159 1   
   152  148  149 1   
   153  148  155 1   
   154  148  156 1   
   155  149  150 1   
   156  149  157 1   
   157  149  158 1   
   158  150  151 1   
   159  150  152 1   
   160  159  160 1   
   161  159  168 1   
   162  160  161 1   
   163  160  163 1   
   164  160  169 1   
   165  161  162 2   
   166  161  174 1   
   167  163  164 1   
   168  163  170 1   
   169  163  171 1   
   170  164  165 1   
   171  164  172 1   
   172  164  173 1   
   173  165  166 1   
   174  165  167 1   
   175  174  175 1   
   176  174  179 1   
   177  175  176 1   
   178  175  177 1   
   179  175  178 1   
   180  181  182 1   
   181  181  183 1   
@<TRIPOS>SUBSTRUCTURE
     1 MOL         1 TEMP              0 ****  ****    0 ROOT
