@<TRIPOS>MOLECULE
MOL
  186   183     1     0     0
SMALL
resp


@<TRIPOS>ATOM
      1 C1          0.5500   -2.2400    6.4740 c3        1 MOL     -0.339592
      2 C2          0.8240   -1.9620    4.9550 c         1 MOL      0.765365
      3 O1         -0.1060   -2.2110    4.1630 o         1 MOL     -0.600266
      4 H1          1.4500   -2.0260    7.0500 hc        1 MOL      0.073796
      5 H2         -0.2620   -1.6000    6.8190 hc        1 MOL      0.073796
      6 H3          0.2720   -3.2850    6.6080 hc        1 MOL      0.073796
      7 N1          2.0430   -1.5570    4.5840 n         1 MOL     -0.635342
      8 C3          2.4520   -1.5130    3.1700 c3        1 MOL      0.109501
      9 C4          2.9210   -2.9110    2.6700 c         1 MOL      0.576430
     10 O2          3.7340   -3.4520    3.3830 o         1 MOL     -0.583874
     11 C5          3.6470   -0.5130    2.9990 c3        1 MOL     -0.271325
     12 C6          4.3590   -0.5220    1.6300 c         1 MOL      0.757351
     13 O3          5.4370    0.0750    1.6410 o         1 MOL     -0.703186
     14 O4          3.7650   -0.8810    0.6370 o         1 MOL     -0.703186
     15 H4          2.6610   -1.2670    5.3310 hn        1 MOL      0.342251
     16 H5          1.5880   -1.2150    2.5790 h1        1 MOL      0.051819
     17 H6          4.3310   -0.5910    3.8410 hc        1 MOL      0.062648
     18 H7          3.2610    0.5020    3.0230 hc        1 MOL      0.062648
     19 N2          2.5000   -3.4500    1.5400 n         1 MOL     -0.381527
     20 C7          2.7630   -4.8500    1.1200 c3        1 MOL      0.041034
     21 C8          3.9300   -4.9940    0.1040 c         1 MOL      0.378612
     22 O5          4.6980   -6.0660    0.1490 o         1 MOL     -0.581156
     23 C9          1.4070   -5.3330    0.5480 c3        1 MOL      0.209929
     24 C10         0.2220   -5.2270    1.5810 c3        1 MOL      0.059376
     25 C11         1.3360   -6.7330   -0.0140 c3        1 MOL     -0.454352
     26 C12        -1.0830   -5.8610    1.1360 c3        1 MOL     -0.202929
     27 H8          1.8890   -2.9270    0.9370 hn        1 MOL      0.181655
     28 H9          3.0720   -5.4890    1.9390 h1        1 MOL      0.046244
     29 H10         1.2100   -4.6910   -0.3180 hc        1 MOL      0.008871
     30 H11         0.0420   -4.1890    1.8390 hc        1 MOL      0.003157
     31 H12         0.4740   -5.6370    2.5630 hc        1 MOL      0.003157
     32 H13         1.5900   -7.4850    0.7360 hc        1 MOL      0.104813
     33 H14         0.4640   -6.9670   -0.6090 hc        1 MOL      0.104813
     34 H15         2.0530   -6.7010   -0.8360 hc        1 MOL      0.104813
     35 H16        -1.3770   -5.6620    0.1010 hc        1 MOL      0.041050
     36 H17        -1.0940   -6.9430    1.2820 hc        1 MOL      0.041050
     37 H18        -1.8750   -5.3470    1.6850 hc        1 MOL      0.041050
     38 N3          3.9920   -4.0940   -0.8710 n         1 MOL     -0.226090
     39 C13         4.9590   -4.0640   -2.0040 c3        1 MOL      0.080461
     40 C14         6.2200   -3.3170   -1.8020 c         1 MOL      0.379158
     41 O6          7.1900   -3.3810   -2.6130 o         1 MOL     -0.564050
     42 C15         4.3200   -3.7240   -3.4250 c3        1 MOL     -0.337640
     43 C16         3.6020   -2.3770   -3.4100 c         1 MOL      0.814629
     44 O7          2.9860   -1.9960   -4.4890 o         1 MOL     -0.715295
     45 O8          3.5430   -1.6860   -2.3940 o         1 MOL     -0.715295
     46 H19         3.3670   -3.3070   -0.8390 hn        1 MOL      0.212230
     47 H20         5.2160   -5.1080   -2.1740 h1        1 MOL      0.086136
     48 H21         3.6750   -4.5670   -3.6720 hc        1 MOL      0.091675
     49 H22         5.0410   -3.6850   -4.2390 hc        1 MOL      0.091675
     50 N4          6.3260   -2.6250   -0.6760 n         1 MOL     -0.199491
     51 C17         7.5960   -2.0810   -0.1360 c3        1 MOL     -0.300700
     52 C18         7.9260   -0.6390   -0.5730 c         1 MOL      0.566209
     53 O9          9.0460   -0.1920   -0.3710 o         1 MOL     -0.598233
     54 H23         5.4850   -2.5750   -0.1160 hn        1 MOL      0.256504
     55 H24         8.3630   -2.7960   -0.4220 h1        1 MOL      0.138859
     56 H25         7.5460   -2.0150    0.9480 h1        1 MOL      0.138859
     57 N5          7.0050    0.0720   -1.2630 n         1 MOL     -0.251198
     58 C19         7.2770    1.4400   -1.7320 c3        1 MOL     -0.009992
     59 C20         7.4340    2.4930   -0.5590 c         1 MOL      0.398641
     60 O10         7.9270    3.5910   -0.8080 o         1 MOL     -0.554699
     61 C21         6.3240    1.9590   -2.7570 c3        1 MOL     -0.357088
     62 C22         4.8240    1.7320   -2.4040 c         1 MOL      0.698300
     63 O11         4.0620    1.3180   -3.3140 o         1 MOL     -0.684409
     64 O12         4.3800    1.8820   -1.2290 o         1 MOL     -0.684409
     65 H26         6.1640   -0.4090   -1.5320 hn        1 MOL      0.282205
     66 H27         8.2070    1.3080   -2.2850 h1        1 MOL      0.096387
     67 H28         6.5960    1.4510   -3.6760 hc        1 MOL      0.112317
     68 H29         6.3770    3.0480   -2.8420 hc        1 MOL      0.112317
     69 N6          6.9660    2.2890    0.7000 n         1 MOL     -0.131257
     70 C23         6.8380    3.2870    1.7300 c3        1 MOL     -0.174964
     71 C24         5.5920    4.1900    1.6530 c         1 MOL      0.646753
     72 O13         5.6740    5.2690    2.1260 o         1 MOL     -0.623274
     73 H30         6.5780    1.3860    0.9400 hn        1 MOL      0.192727
     74 H31         7.7740    3.8550    1.7230 h1        1 MOL      0.074967
     75 H32         6.7930    2.8330    2.7300 h1        1 MOL      0.074967
     76 N7          4.4930    3.7350    1.0240 n         1 MOL     -0.304618
     77 C25         3.0880    4.1490    1.1010 c3        1 MOL     -0.050154
     78 C26         2.1120    2.9830    1.3250 c         1 MOL      0.518762
     79 O14         2.3260    1.8140    1.0470 o         1 MOL     -0.556338
     80 C27         2.6870    5.0120   -0.1250 c3        1 MOL      0.272072
     81 C28         3.1170    6.4760    0.0630 c3        1 MOL     -0.346200
     82 C29         2.7370    7.3450   -1.1190 c         1 MOL      0.562233
     83 N8          3.6620    7.5630   -1.9960 n         1 MOL     -0.683643
     84 O15         1.5400    7.6760   -1.3100 o         1 MOL     -0.561743
     85 H33         4.7210    2.8760    0.5450 hn        1 MOL      0.189095
     86 H34         3.0790    4.7270    2.0230 h1        1 MOL      0.060963
     87 H35         1.6110    5.0730   -0.2720 hc        1 MOL     -0.012325
     88 H36         3.1680    4.6240   -1.0330 hc        1 MOL     -0.012325
     89 H37         4.1950    6.3420    0.1920 hc        1 MOL      0.085332
     90 H38         2.6580    6.8740    0.9640 hc        1 MOL      0.085332
     91 H39         4.5890    7.2310   -1.7680 hn        1 MOL      0.337915
     92 H40         3.5310    8.4060   -2.5380 hn        1 MOL      0.337915
     93 N9          0.9110    3.2990    1.7750 n         1 MOL     -0.407038
     94 C30        -0.2290    2.4020    1.8570 c3        1 MOL      0.029677
     95 C31        -1.3250    2.9690    0.9040 c         1 MOL      0.299703
     96 O16        -1.7390    4.1200    1.0640 o         1 MOL     -0.564918
     97 C32        -0.7510    2.3940    3.3410 c3        1 MOL      0.247837
     98 C33        -2.1930    1.9000    3.6300 c3        1 MOL     -0.278911
     99 C34         0.1810    1.6000    4.2320 c3        1 MOL     -0.278911
    100 H41         0.8240    4.2540    2.0820 hn        1 MOL      0.255189
    101 H42        -0.0220    1.3850    1.5350 h1        1 MOL      0.161355
    102 H43        -0.6460    3.3980    3.7410 hc        1 MOL     -0.017361
    103 H44        -2.4080    0.8370    3.5010 hc        1 MOL      0.050259
    104 H45        -2.3850    2.1210    4.6780 hc        1 MOL      0.050259
    105 H46        -2.9090    2.3360    2.9280 hc        1 MOL      0.050259
    106 H47         0.7950    0.9160    3.6450 hc        1 MOL      0.050259
    107 H48         0.8000    2.2910    4.8000 hc        1 MOL      0.050259
    108 H49        -0.3090    0.9080    4.9190 hc        1 MOL      0.050259
    109 N10        -1.8930    2.1830   -0.0050 n         1 MOL      0.042677
    110 C35        -3.0280    2.4640   -0.8000 c3        1 MOL      0.043337
    111 C36        -4.3640    2.1370   -0.0070 c         1 MOL      0.384511
    112 O17        -4.3490    1.5830    1.0780 o         1 MOL     -0.314669
    113 C37        -2.8450    1.6000   -2.1150 c3        1 MOL     -0.552138
    114 C38        -3.9320    1.8590   -3.0960 c         1 MOL      0.784079
    115 N11        -4.2130    3.0970   -3.5810 n         1 MOL     -0.842524
    116 O18        -4.6040    0.9870   -3.5580 o         1 MOL     -0.520622
    117 H50        -1.4520    1.2830   -0.0830 hn        1 MOL      0.121490
    118 H51        -3.0860    3.4940   -1.1600 h1        1 MOL      0.034375
    119 H52        -2.7880    0.5250   -1.9060 hc        1 MOL      0.219334
    120 H53        -1.9370    2.0290   -2.5290 hc        1 MOL      0.219334
    121 H54        -3.8610    3.9480   -3.1560 hn        1 MOL      0.359786
    122 H55        -4.9090    3.1740   -4.3090 hn        1 MOL      0.359786
    123 N12        -5.5500    2.4020   -0.5460 n         1 MOL     -0.403535
    124 C39        -6.9110    1.8840   -0.1240 c3        1 MOL      0.080677
    125 C40        -6.9850    0.3260   -0.1900 c         1 MOL      0.636631
    126 O19        -7.3580   -0.2740    0.7980 o         1 MOL     -0.500906
    127 C41        -7.9900    2.5270   -0.9500 c3        1 MOL      0.035479
    128 C42        -9.4120    2.0740   -0.4860 ca        1 MOL     -0.048530
    129 C43        -9.9770    2.3990    0.7890 ca        1 MOL     -0.211071
    130 C44       -10.1500    1.1640   -1.3150 ca        1 MOL     -0.211071
    131 C45       -11.2630    1.9020    1.1650 ca        1 MOL     -0.140399
    132 C46       -11.4240    0.7560   -0.9280 ca        1 MOL     -0.140399
    133 C47       -12.0260    1.1050    0.3110 ca        1 MOL      0.248404
    134 O20       -13.2390    0.5970    0.6610 oh        1 MOL     -0.508323
    135 H56        -5.4730    3.0040   -1.3630 hn        1 MOL      0.178337
    136 H57        -6.9850    2.2450    0.9010 h1        1 MOL      0.053178
    137 H58        -7.8610    2.2220   -1.9850 hc        1 MOL      0.022882
    138 H59        -8.0080    3.6190   -0.9850 hc        1 MOL      0.022882
    139 H60        -9.4100    3.0290    1.4610 ha        1 MOL      0.150885
    140 H61        -9.7700    0.8640   -2.2740 ha        1 MOL      0.150885
    141 H62       -11.6260    2.2250    2.1230 ha        1 MOL      0.108617
    142 H63       -12.0170    0.1450   -1.5910 ha        1 MOL      0.108617
    143 H64       -13.6350   -0.0060    0.0380 ho        1 MOL      0.381559
    144 N13        -6.4270   -0.2440   -1.2580 n         1 MOL     -0.509010
    145 C48        -6.1190   -1.6580   -1.3980 c3        1 MOL      0.121081
    146 C49        -5.3420   -2.2850   -0.2610 c         1 MOL      0.235232
    147 O21        -5.7900   -3.2560    0.2770 o         1 MOL     -0.477418
    148 C50        -5.4640   -1.9200   -2.7080 c3        1 MOL     -0.004558
    149 C51        -5.2860   -3.3440   -2.9830 c3        1 MOL     -0.288018
    150 C52        -4.8810   -3.6770   -4.4230 c         1 MOL      0.722127
    151 O22        -5.5070   -3.2220   -5.4350 o         1 MOL     -0.736038
    152 O23        -3.8370   -4.2960   -4.5590 o         1 MOL     -0.736038
    153 H65        -6.2080    0.4260   -1.9770 hn        1 MOL      0.287956
    154 H66        -7.0430   -2.2310   -1.4690 h1        1 MOL      0.055322
    155 H67        -4.4570   -1.5030   -2.6140 hc        1 MOL      0.039504
    156 H68        -5.9680   -1.3910   -3.5100 hc        1 MOL      0.039504
    157 H69        -6.2280   -3.7930   -2.7140 hc        1 MOL      0.053608
    158 H70        -4.5000   -3.6740   -2.3030 hc        1 MOL      0.053608
    159 N14        -4.3170   -1.5960    0.1560 n         1 MOL      0.120191
    160 C53        -3.5240   -2.0940    1.3050 c3        1 MOL     -0.020021
    161 C54        -4.2020   -1.8280    2.6840 c         1 MOL      0.356029
    162 O24        -4.2280   -2.7390    3.5000 o         1 MOL     -0.560701
    163 C55        -2.1520   -1.4710    1.2570 c3        1 MOL      0.091988
    164 C56        -1.4130   -1.8910   -0.0440 c3        1 MOL     -0.285147
    165 C57        -0.0880   -1.2400   -0.1870 c         1 MOL      0.637181
    166 O25         1.0090   -1.8310   -0.2420 o         1 MOL     -0.674524
    167 O26        -0.0350   -0.0270   -0.2610 o         1 MOL     -0.674524
    168 H71        -4.1150   -0.7210   -0.3070 hn        1 MOL     -0.267533
    169 H72        -3.3930   -3.1800    1.2290 h1        1 MOL      0.107994
    170 H73        -1.5560   -1.7100    2.1410 hc        1 MOL      0.042272
    171 H74        -2.2340   -0.3920    1.3750 hc        1 MOL      0.042272
    172 H75        -2.0380   -1.5580   -0.8870 hc        1 MOL      0.139750
    173 H76        -1.2770   -2.9660   -0.1640 hc        1 MOL      0.139750
    174 N15        -4.8720   -0.7230    2.8890 n         1 MOL      0.110079
    175 C58        -5.6580   -0.3050    4.0490 c3        1 MOL     -0.158045
    176 H77        -6.6760   -0.0740    3.7330 h1        1 MOL      0.057569
    177 H78        -5.6800   -1.1100    4.7830 h1        1 MOL      0.057569
    178 H79        -5.2070    0.5820    4.4930 h1        1 MOL      0.057569
    179 H80        -4.8800   -0.1760    2.0500 hn        1 MOL     -0.020381
    180 Ca1         2.4030    0.2750   -1.0930 Ca        1 MOL      1.657927
    181 O27         1.1010   -0.6050   -3.3270 oh        1 MOL     -0.874652
    182 H81         1.8040   -1.1610   -3.6500 ho        1 MOL      0.407748
    183 H82         0.4290   -0.6570   -4.0130 ho        1 MOL      0.407748
    184 O28         1.2830    2.5910   -2.0470 oh        1 MOL     -0.874652
    185 H83         2.0170    2.8580   -2.6130 ho        1 MOL      0.407748
    186 H84         0.6970    3.3390   -2.0410 ho        1 MOL      0.407748
@<TRIPOS>BOND
     1    1    2 1   
     2    1    4 1   
     3    1    5 1   
     4    1    6 1   
     5    2    3 2   
     6    2    7 1   
     7    7    8 1   
     8    7   15 1   
     9    8    9 1   
    10    8   11 1   
    11    8   16 1   
    12    9   10 2   
    13    9   19 1   
    14   11   12 1   
    15   11   17 1   
    16   11   18 1   
    17   12   13 1   
    18   12   14 1   
    19   19   20 1   
    20   19   27 1   
    21   20   21 1   
    22   20   23 1   
    23   20   28 1   
    24   21   22 2   
    25   21   38 1   
    26   23   24 1   
    27   23   25 1   
    28   23   29 1   
    29   24   26 1   
    30   24   30 1   
    31   24   31 1   
    32   25   32 1   
    33   25   33 1   
    34   25   34 1   
    35   26   35 1   
    36   26   36 1   
    37   26   37 1   
    38   38   39 1   
    39   38   46 1   
    40   39   40 1   
    41   39   42 1   
    42   39   47 1   
    43   40   41 2   
    44   40   50 1   
    45   42   43 1   
    46   42   48 1   
    47   42   49 1   
    48   43   44 1   
    49   43   45 1   
    50   50   51 1   
    51   50   54 1   
    52   51   52 1   
    53   51   55 1   
    54   51   56 1   
    55   52   53 2   
    56   52   57 1   
    57   57   58 1   
    58   57   65 1   
    59   58   59 1   
    60   58   61 1   
    61   58   66 1   
    62   59   60 2   
    63   59   69 1   
    64   61   62 1   
    65   61   67 1   
    66   61   68 1   
    67   62   63 1   
    68   62   64 1   
    69   69   70 1   
    70   69   73 1   
    71   70   71 1   
    72   70   74 1   
    73   70   75 1   
    74   71   72 2   
    75   71   76 1   
    76   76   77 1   
    77   76   85 1   
    78   77   78 1   
    79   77   80 1   
    80   77   86 1   
    81   78   79 2   
    82   78   93 1   
    83   80   81 1   
    84   80   87 1   
    85   80   88 1   
    86   81   82 1   
    87   81   89 1   
    88   81   90 1   
    89   82   83 1   
    90   82   84 2   
    91   83   91 1   
    92   83   92 1   
    93   93   94 1   
    94   93  100 1   
    95   94   95 1   
    96   94   97 1   
    97   94  101 1   
    98   95   96 2   
    99   95  109 1   
   100   97   98 1   
   101   97   99 1   
   102   97  102 1   
   103   98  103 1   
   104   98  104 1   
   105   98  105 1   
   106   99  106 1   
   107   99  107 1   
   108   99  108 1   
   109  109  110 1   
   110  109  117 1   
   111  110  111 1   
   112  110  113 1   
   113  110  118 1   
   114  111  112 2   
   115  111  123 1   
   116  113  114 1   
   117  113  119 1   
   118  113  120 1   
   119  114  115 1   
   120  114  116 2   
   121  115  121 1   
   122  115  122 1   
   123  123  124 1   
   124  123  135 1   
   125  124  125 1   
   126  124  127 1   
   127  124  136 1   
   128  125  126 2   
   129  125  144 1   
   130  127  128 1   
   131  127  137 1   
   132  127  138 1   
   133  128  129 ar  
   134  128  130 ar  
   135  129  131 ar  
   136  129  139 1   
   137  130  132 ar  
   138  130  140 1   
   139  131  133 ar  
   140  131  141 1   
   141  132  133 ar  
   142  132  142 1   
   143  133  134 1   
   144  134  143 1   
   145  144  145 1   
   146  144  153 1   
   147  145  146 1   
   148  145  148 1   
   149  145  154 1   
   150  146  147 2   
   151  146  159 1   
   152  148  149 1   
   153  148  155 1   
   154  148  156 1   
   155  149  150 1   
   156  149  157 1   
   157  149  158 1   
   158  150  151 1   
   159  150  152 1   
   160  159  160 1   
   161  159  168 1   
   162  160  161 1   
   163  160  163 1   
   164  160  169 1   
   165  161  162 2   
   166  161  174 1   
   167  163  164 1   
   168  163  170 1   
   169  163  171 1   
   170  164  165 1   
   171  164  172 1   
   172  164  173 1   
   173  165  166 1   
   174  165  167 1   
   175  174  175 1   
   176  174  179 1   
   177  175  176 1   
   178  175  177 1   
   179  175  178 1   
   180  181  182 1   
   181  181  183 1   
   182  184  185 1   
   183  184  186 1   
@<TRIPOS>SUBSTRUCTURE
     1 MOL         1 TEMP              0 ****  ****    0 ROOT
