@<TRIPOS>MOLECULE
MOL
  179   176     1     0     0
SMALL
resp


@<TRIPOS>ATOM
      1 C1          1.9330    3.4580    4.9670 c3        1 MOL     -0.381011
      2 C2          1.2670    3.1750    3.6190 c         1 MOL      0.678774
      3 O1          1.9490    3.3550    2.6590 o         1 MOL     -0.547153
      4 H1          2.8030    2.8120    5.0850 hc        1 MOL      0.088131
      5 H2          2.2480    4.5010    5.0060 hc        1 MOL      0.088131
      6 H3          1.2240    3.2620    5.7710 hc        1 MOL      0.088131
      7 N1          0.0060    2.8730    3.6250 n         1 MOL     -0.579275
      8 C3         -0.7800    2.7340    2.4520 c3        1 MOL     -0.001553
      9 C4         -1.2590    4.0930    1.8450 c         1 MOL      0.557224
     10 O2         -2.3420    4.5520    2.1760 o         1 MOL     -0.558767
     11 C5         -1.9550    1.7950    2.7400 c3        1 MOL     -0.007347
     12 C6         -2.8240    1.4500    1.5040 c         1 MOL      0.734103
     13 O3         -2.2640    1.4560    0.3780 o         1 MOL     -0.752632
     14 O4         -3.9410    0.9700    1.6790 o         1 MOL     -0.752632
     15 H4         -0.5400    2.6590    4.4480 hn        1 MOL      0.345877
     16 H5         -0.0900    2.3740    1.6900 h1        1 MOL      0.036965
     17 H6         -2.4430    2.1120    3.6550 hc        1 MOL      0.005663
     18 H7         -1.5010    0.8650    3.0880 hc        1 MOL      0.005663
     19 N2         -0.4780    4.6890    1.0370 n         1 MOL     -0.256979
     20 C7         -0.7220    5.9760    0.4700 c3        1 MOL     -0.087882
     21 C8         -1.9010    6.0230   -0.4770 c         1 MOL      0.471385
     22 O5         -2.3660    7.1190   -0.6840 o         1 MOL     -0.562415
     23 C9          0.5400    6.5950   -0.1650 c3        1 MOL     -0.142760
     24 C10         1.5830    6.9690    0.8750 c3        1 MOL      0.199723
     25 C11         2.5820    7.9600    0.2590 c3        1 MOL     -0.196485
     26 C12         3.6610    8.1290    1.3810 c3        1 MOL      0.112677
     27 N3          4.5010    9.3400    1.2000 n4        1 MOL     -0.352376
     28 H8          0.2880    4.1320    0.6770 hn        1 MOL      0.295358
     29 H9         -0.8780    6.6140    1.3400 h1        1 MOL      0.092794
     30 H10         0.1980    7.4710   -0.7170 hc        1 MOL      0.062242
     31 H11         0.9450    5.9340   -0.9320 hc        1 MOL      0.062242
     32 H12         1.9810    6.1360    1.4470 hc        1 MOL     -0.020831
     33 H13         1.0030    7.4650    1.6470 hc        1 MOL     -0.020831
     34 H14         2.1050    8.9270    0.1120 hc        1 MOL      0.078038
     35 H15         3.1050    7.5680   -0.6160 hc        1 MOL      0.078038
     36 H16         4.2900    7.2420    1.4610 hx        1 MOL      0.075876
     37 H17         3.1080    8.3510    2.2940 hx        1 MOL      0.075876
     38 H18         3.9120   10.1570    1.0930 hn        1 MOL      0.318619
     39 H19         5.1940    9.3530    1.9290 hn        1 MOL      0.318619
     40 H20         5.0150    9.3150    0.3310 hn        1 MOL      0.318619
     41 N4         -2.3190    4.9880   -1.2060 n         1 MOL     -0.142244
     42 C13        -3.4590    4.9680   -2.1930 c3        1 MOL      0.041394
     43 C14        -4.7510    4.4640   -1.6790 c         1 MOL      0.455771
     44 O6         -5.8240    4.7830   -2.1700 o         1 MOL     -0.559514
     45 C15        -2.9690    4.1800   -3.4530 c3        1 MOL     -0.290592
     46 C16        -2.4410    2.8020   -2.9590 c         1 MOL      0.760762
     47 O7         -1.2270    2.7360   -2.6290 o         1 MOL     -0.688912
     48 O8         -3.1840    1.8330   -3.0370 o         1 MOL     -0.688912
     49 H21        -1.9360    4.1170   -0.8790 hn        1 MOL      0.066973
     50 H22        -3.7670    5.9720   -2.4740 h1        1 MOL      0.093292
     51 H23        -2.0860    4.7100   -3.8160 hc        1 MOL      0.076684
     52 H24        -3.7240    3.9820   -4.2140 hc        1 MOL      0.076684
     53 N5         -4.7420    3.7270   -0.5770 n         1 MOL     -0.124717
     54 C17        -5.8650    3.2910    0.1930 c3        1 MOL     -0.121468
     55 C18        -6.4720    1.9420   -0.1400 c         1 MOL      0.579106
     56 O9         -7.4740    1.6570    0.5140 o         1 MOL     -0.588321
     57 H25        -3.8370    3.5390   -0.1640 hn        1 MOL      0.110570
     58 H26        -6.6430    4.0400    0.0140 h1        1 MOL      0.092705
     59 H27        -5.6590    3.4550    1.2560 h1        1 MOL      0.092705
     60 N6         -5.9970    1.1500   -1.1350 n         1 MOL     -0.316941
     61 C19        -6.5160   -0.1980   -1.4650 c3        1 MOL     -0.074386
     62 C20        -6.5830   -1.2770   -0.3580 c         1 MOL      0.325073
     63 O10        -7.1890   -2.2970   -0.5550 o         1 MOL     -0.487893
     64 C21        -5.9030   -0.7550   -2.7610 c3        1 MOL     -0.289029
     65 C22        -4.5730   -1.5120   -2.5890 c         1 MOL      0.889225
     66 N7         -4.2380   -2.5090   -3.4180 n         1 MOL     -0.905252
     67 O11        -3.6760   -1.0450   -1.9180 o         1 MOL     -0.800354
     68 H28        -5.2520    1.5750   -1.6730 hn        1 MOL      0.207512
     69 H29        -7.5500    0.0980   -1.6570 h1        1 MOL      0.146117
     70 H30        -5.8670   -0.0480   -3.5820 hc        1 MOL      0.115600
     71 H31        -6.5380   -1.5470   -3.1480 hc        1 MOL      0.115600
     72 H32        -4.9330   -3.0820   -3.8770 hn        1 MOL      0.384388
     73 H33        -3.3210   -2.9360   -3.3520 hn        1 MOL      0.384388
     74 N8         -6.0790   -1.0340    0.8600 n         1 MOL     -0.034699
     75 C23        -6.0890   -1.9110    1.9680 c3        1 MOL     -0.373563
     76 C24        -4.8520   -2.8250    2.1440 c         1 MOL      0.660364
     77 O12        -4.9190   -3.7040    2.9810 o         1 MOL     -0.553620
     78 H34        -5.5920   -0.1580    0.9800 hn        1 MOL      0.275119
     79 H35        -6.9970   -2.5210    1.9210 h1        1 MOL      0.144227
     80 H36        -6.1840   -1.3330    2.8910 h1        1 MOL      0.144227
     81 N9         -3.7890   -2.5760    1.3330 n         1 MOL     -0.398179
     82 C25        -2.5930   -3.3920    1.4240 c3        1 MOL      0.033067
     83 C26        -1.3180   -2.5670    1.0990 c         1 MOL      0.438253
     84 O13        -1.4160   -1.5730    0.3360 o         1 MOL     -0.499952
     85 C27        -2.7100   -4.4720    0.2640 c3        1 MOL      0.259513
     86 C28        -3.7310   -5.5970    0.4250 ca        1 MOL     -0.230578
     87 C29        -4.8080   -5.7260   -0.4330 ca        1 MOL     -0.027294
     88 C30        -3.7520   -6.3910    1.6100 ca        1 MOL     -0.027294
     89 C31        -5.8770   -6.6230   -0.1880 ca        1 MOL     -0.322323
     90 C32        -4.7880   -7.3340    1.7600 ca        1 MOL     -0.322323
     91 C33        -5.8920   -7.4290    0.9020 ca        1 MOL      0.456047
     92 O14        -6.8530   -8.3540    1.0560 oh        1 MOL     -0.508047
     93 H37        -3.6650   -1.8130    0.6930 hn        1 MOL      0.281465
     94 H38        -2.4510   -3.8650    2.3920 h1        1 MOL      0.059878
     95 H39        -1.7980   -5.0600    0.1930 hc        1 MOL     -0.036243
     96 H40        -2.9240   -3.9860   -0.6840 hc        1 MOL     -0.036243
     97 H41        -4.8170   -5.1610   -1.3550 ha        1 MOL      0.097176
     98 H42        -2.9240   -6.4200    2.3040 ha        1 MOL      0.097176
     99 H43        -6.6450   -6.7220   -0.9360 ha        1 MOL      0.139442
    100 H44        -4.7000   -8.0200    2.5970 ha        1 MOL      0.139442
    101 H45        -6.5960   -9.0360    1.6830 ho        1 MOL      0.359550
    102 N10        -0.1960   -2.9610    1.6800 n         1 MOL     -0.458469
    103 C34         1.1550   -2.4340    1.1950 c3        1 MOL     -0.064838
    104 C35         2.1560   -3.5390    0.7780 c         1 MOL      0.534850
    105 O15         2.2020   -4.5670    1.4850 o         1 MOL     -0.559151
    106 C36         1.7770   -1.6280    2.3650 c3        1 MOL      0.290370
    107 C37         2.0190   -2.4960    3.6660 c3        1 MOL     -0.046346
    108 C38         0.9610   -0.3220    2.7540 c3        1 MOL     -0.334377
    109 C39         2.4670   -1.7080    4.8930 c3        1 MOL     -0.186828
    110 H46        -0.2290   -3.5250    2.5220 hn        1 MOL      0.301697
    111 H47         0.9150   -1.7990    0.3350 h1        1 MOL      0.123087
    112 H48         2.7010   -1.2520    1.9310 hc        1 MOL     -0.069518
    113 H49         2.8930   -3.1070    3.4250 hc        1 MOL      0.040677
    114 H50         1.1470   -3.0920    3.9350 hc        1 MOL      0.040677
    115 H51         1.6740    0.3260    3.2660 hc        1 MOL      0.092171
    116 H52         0.4970    0.2120    1.9270 hc        1 MOL      0.092171
    117 H53         0.2090   -0.6340    3.4790 hc        1 MOL      0.092171
    118 H54         2.8550   -2.3580    5.6780 hc        1 MOL      0.044309
    119 H55         3.2370   -0.9440    4.7940 hc        1 MOL      0.044309
    120 H56         1.5760   -1.2650    5.3410 hc        1 MOL      0.044309
    121 N11         2.8830   -3.2900   -0.2850 n         1 MOL     -0.417865
    122 C40         4.0460   -4.1320   -0.7170 c3        1 MOL      0.189424
    123 C41         5.3560   -3.6850    0.0800 c         1 MOL      0.406884
    124 O16         5.4200   -2.5900    0.6940 o         1 MOL     -0.370745
    125 C42         4.1620   -3.9420   -2.1890 c3        1 MOL     -0.350797
    126 O17         4.5590   -2.6060   -2.4690 oh        1 MOL     -0.216688
    127 H57         2.7320   -2.3780   -0.7070 hn        1 MOL      0.216435
    128 H58         3.9110   -5.1860   -0.4540 h1        1 MOL      0.075571
    129 H59         3.2070   -4.0530   -2.6960 h1        1 MOL      0.143697
    130 H60         4.9350   -4.6070   -2.5690 h1        1 MOL      0.143697
    131 H61         4.3210   -2.4790   -3.3910 ho        1 MOL      0.347566
    132 N12         6.4450   -4.4900   -0.1320 n         1 MOL     -0.502773
    133 C43         7.7540   -3.9900    0.2980 c3        1 MOL      0.209841
    134 C44         8.3260   -2.9040   -0.6900 c         1 MOL      0.457238
    135 O18         9.3940   -2.3800   -0.5070 o         1 MOL     -0.516277
    136 C45         8.6920   -5.2100    0.3440 c3        1 MOL     -0.381328
    137 H62         6.3760   -5.3170   -0.7000 hn        1 MOL      0.317920
    138 H63         7.7830   -3.5210    1.2770 h1        1 MOL      0.091130
    139 H64         8.3040   -5.8230    1.1490 hc        1 MOL      0.113676
    140 H65         8.6860   -5.7410   -0.6040 hc        1 MOL      0.113676
    141 H66         9.7070   -4.9090    0.6020 hc        1 MOL      0.113676
    142 N13         7.5760   -2.5970   -1.7430 n         1 MOL     -0.331917
    143 C46         7.8990   -1.5130   -2.6450 c3        1 MOL      0.077143
    144 C47         7.3130   -0.2040   -2.0910 c         1 MOL      0.401578
    145 O19         7.9360    0.8650   -2.2210 o         1 MOL     -0.542325
    146 C48         7.6240   -1.8470   -4.1390 c3        1 MOL     -0.131870
    147 H67         6.6850   -3.0690   -1.8860 hn        1 MOL      0.175879
    148 H68         8.9790   -1.3690   -2.6510 h1        1 MOL      0.111976
    149 H69         8.1500   -2.6870   -4.5990 hc        1 MOL      0.040004
    150 H70         6.5610   -2.0500   -4.2950 hc        1 MOL      0.040004
    151 H71         7.8820   -0.9620   -4.7120 hc        1 MOL      0.040004
    152 N14         6.2080   -0.1570   -1.3220 n         1 MOL     -0.027023
    153 C49         5.4400    1.0110   -0.8070 c3        1 MOL     -0.050766
    154 C50         5.9610    1.3680    0.5920 c         1 MOL      0.412575
    155 O20         5.9490    2.5060    0.9890 o         1 MOL     -0.537710
    156 C51         3.9280    0.6950   -0.6660 c3        1 MOL      0.034707
    157 C52         3.1940    0.8570   -2.0350 c3        1 MOL     -0.012491
    158 C53         1.6920    0.6110   -1.8190 c         1 MOL      0.748474
    159 O21         0.9890   -0.0910   -2.5630 o         1 MOL     -0.799603
    160 O22         1.0310    1.1050   -0.8350 o         1 MOL     -0.799603
    161 H72         5.7520   -1.0500   -1.2590 hn        1 MOL     -0.148662
    162 H73         5.6580    1.8810   -1.4190 h1        1 MOL      0.095240
    163 H74         3.5100    1.4360    0.0200 hc        1 MOL      0.049544
    164 H75         3.8180   -0.3400   -0.3370 hc        1 MOL      0.049544
    165 H76         3.5430    0.0910   -2.7190 hc        1 MOL     -0.018083
    166 H77         3.4170    1.7880   -2.5580 hc        1 MOL     -0.018083
    167 N15         6.3160    0.3530    1.3600 n         1 MOL     -0.078164
    168 C54         6.7720    0.4500    2.7000 c3        1 MOL     -0.258199
    169 H78         7.6670   -0.1610    2.8240 h1        1 MOL      0.102563
    170 H79         7.0080    1.4890    2.9310 h1        1 MOL      0.102563
    171 H80         5.9940    0.0940    3.3760 h1        1 MOL      0.102563
    172 H81         6.2360   -0.5980    1.0170 hn        1 MOL      0.118204
    173 Ca1        -1.3620    0.1300   -1.5960 Ca        1 MOL      1.745805
    174 O23        -0.5550   -2.3430   -2.1750 oh        1 MOL     -0.773533
    175 H82        -0.6320   -3.2630   -2.4290 ho        1 MOL      0.382382
    176 H83         0.0660   -1.9750   -2.8040 ho        1 MOL      0.382382
    177 O24        -1.6670   -0.5320   -4.2270 oh        1 MOL     -0.773533
    178 H84        -2.3700   -0.0000   -4.5980 ho        1 MOL      0.382382
    179 H85        -1.8680   -1.4230   -4.5050 ho        1 MOL      0.382382
@<TRIPOS>BOND
     1    1    2 1   
     2    1    4 1   
     3    1    5 1   
     4    1    6 1   
     5    2    3 2   
     6    2    7 1   
     7    7    8 1   
     8    7   15 1   
     9    8    9 1   
    10    8   11 1   
    11    8   16 1   
    12    9   10 2   
    13    9   19 1   
    14   11   12 1   
    15   11   17 1   
    16   11   18 1   
    17   12   13 1   
    18   12   14 1   
    19   19   20 1   
    20   19   28 1   
    21   20   21 1   
    22   20   23 1   
    23   20   29 1   
    24   21   22 2   
    25   21   41 1   
    26   23   24 1   
    27   23   30 1   
    28   23   31 1   
    29   24   25 1   
    30   24   32 1   
    31   24   33 1   
    32   25   26 1   
    33   25   34 1   
    34   25   35 1   
    35   26   27 1   
    36   26   36 1   
    37   26   37 1   
    38   27   38 1   
    39   27   39 1   
    40   27   40 1   
    41   41   42 1   
    42   41   49 1   
    43   42   43 1   
    44   42   45 1   
    45   42   50 1   
    46   43   44 2   
    47   43   53 1   
    48   45   46 1   
    49   45   51 1   
    50   45   52 1   
    51   46   47 1   
    52   46   48 1   
    53   53   54 1   
    54   53   57 1   
    55   54   55 1   
    56   54   58 1   
    57   54   59 1   
    58   55   56 2   
    59   55   60 1   
    60   60   61 1   
    61   60   68 1   
    62   61   62 1   
    63   61   64 1   
    64   61   69 1   
    65   62   63 2   
    66   62   74 1   
    67   64   65 1   
    68   64   70 1   
    69   64   71 1   
    70   65   66 1   
    71   65   67 2   
    72   66   72 1   
    73   66   73 1   
    74   74   75 1   
    75   74   78 1   
    76   75   76 1   
    77   75   79 1   
    78   75   80 1   
    79   76   77 2   
    80   76   81 1   
    81   81   82 1   
    82   81   93 1   
    83   82   83 1   
    84   82   85 1   
    85   82   94 1   
    86   83   84 2   
    87   83  102 1   
    88   85   86 1   
    89   85   95 1   
    90   85   96 1   
    91   86   87 ar  
    92   86   88 ar  
    93   87   89 ar  
    94   87   97 1   
    95   88   90 ar  
    96   88   98 1   
    97   89   91 ar  
    98   89   99 1   
    99   90   91 ar  
   100   90  100 1   
   101   91   92 1   
   102   92  101 1   
   103  102  103 1   
   104  102  110 1   
   105  103  104 1   
   106  103  106 1   
   107  103  111 1   
   108  104  105 2   
   109  104  121 1   
   110  106  107 1   
   111  106  108 1   
   112  106  112 1   
   113  107  109 1   
   114  107  113 1   
   115  107  114 1   
   116  108  115 1   
   117  108  116 1   
   118  108  117 1   
   119  109  118 1   
   120  109  119 1   
   121  109  120 1   
   122  121  122 1   
   123  121  127 1   
   124  122  123 1   
   125  122  125 1   
   126  122  128 1   
   127  123  124 2   
   128  123  132 1   
   129  125  126 1   
   130  125  129 1   
   131  125  130 1   
   132  126  131 1   
   133  132  133 1   
   134  132  137 1   
   135  133  134 1   
   136  133  136 1   
   137  133  138 1   
   138  134  135 2   
   139  134  142 1   
   140  136  139 1   
   141  136  140 1   
   142  136  141 1   
   143  142  143 1   
   144  142  147 1   
   145  143  144 1   
   146  143  146 1   
   147  143  148 1   
   148  144  145 2   
   149  144  152 1   
   150  146  149 1   
   151  146  150 1   
   152  146  151 1   
   153  152  153 1   
   154  152  161 1   
   155  153  154 1   
   156  153  156 1   
   157  153  162 1   
   158  154  155 2   
   159  154  167 1   
   160  156  157 1   
   161  156  163 1   
   162  156  164 1   
   163  157  158 1   
   164  157  165 1   
   165  157  166 1   
   166  158  159 1   
   167  158  160 1   
   168  167  168 1   
   169  167  172 1   
   170  168  169 1   
   171  168  170 1   
   172  168  171 1   
   173  174  175 1   
   174  174  176 1   
   175  177  178 1   
   176  177  179 1   
@<TRIPOS>SUBSTRUCTURE
     1 MOL         1 TEMP              0 ****  ****    0 ROOT
