@<TRIPOS>MOLECULE
MOL
  189   185     1     0     0
SMALL
resp


@<TRIPOS>ATOM
      1 C1          0.1550   -2.2380    6.4620 c3        1 MOL     -0.505628
      2 C2          0.7490   -2.1700    5.0490 c         1 MOL      0.747041
      3 O1          0.7470   -1.0440    4.5430 o         1 MOL     -0.610496
      4 H1          0.1110   -3.2780    6.7870 hc        1 MOL      0.130766
      5 H2          0.7820   -1.6690    7.1480 hc        1 MOL      0.130766
      6 H3         -0.8510   -1.8170    6.4540 hc        1 MOL      0.130766
      7 N1          1.3300   -3.2540    4.4950 n         1 MOL     -0.609703
      8 C3          2.0320   -3.2100    3.1520 c3        1 MOL      0.115538
      9 C4          1.8510   -4.5400    2.4460 c         1 MOL      0.620703
     10 O2          1.8160   -5.5820    2.9610 o         1 MOL     -0.572301
     11 C5          3.5320   -2.7810    3.2990 c3        1 MOL     -0.121009
     12 C6          4.2220   -2.6780    1.9420 c         1 MOL      0.491290
     13 O3          5.3970   -3.1020    1.8050 o         1 MOL     -0.622337
     14 O4          3.6030   -2.1700    0.9520 o         1 MOL     -0.622337
     15 H4          1.2320   -4.1430    4.9660 hn        1 MOL      0.312777
     16 H5          1.5570   -2.4070    2.5870 h1        1 MOL      0.012612
     17 H6          4.0090   -3.5400    3.9200 hc        1 MOL      0.039457
     18 H7          3.6900   -1.8300    3.8200 hc        1 MOL      0.039457
     19 N2          1.8100   -4.4010    1.0950 n         1 MOL     -0.256479
     20 C7          1.9380   -5.4820    0.0900 c3        1 MOL     -0.283504
     21 C8          2.9920   -5.3100   -1.0510 c         1 MOL      0.604154
     22 O5          3.0270   -6.2440   -1.8520 o         1 MOL     -0.591190
     23 C9          0.4970   -5.7930   -0.4700 c3        1 MOL      0.254319
     24 C10        -0.0120   -4.5950   -1.3100 c3        1 MOL     -0.039302
     25 C11        -0.5860   -6.0170    0.6180 c3        1 MOL     -0.373185
     26 C12        -1.4800   -4.8460   -1.7900 c3        1 MOL     -0.482886
     27 H8          1.8200   -3.4660    0.7220 hn        1 MOL      0.185906
     28 H9          2.2430   -6.3660    0.6470 h1        1 MOL      0.125840
     29 H10         0.4870   -6.6860   -1.1050 hc        1 MOL     -0.016818
     30 H11         0.7070   -4.3980   -2.1030 hc        1 MOL      0.071047
     31 H12         0.0170   -3.7530   -0.6080 hc        1 MOL      0.071047
     32 H13        -1.0440   -5.0930    0.9670 hc        1 MOL      0.080548
     33 H14        -1.3540   -6.6130    0.1290 hc        1 MOL      0.080548
     34 H15        -0.1090   -6.4740    1.4890 hc        1 MOL      0.080548
     35 H16        -2.2410   -4.7610   -1.0150 hc        1 MOL      0.126428
     36 H17        -1.8230   -4.0670   -2.4630 hc        1 MOL      0.126428
     37 H18        -1.5780   -5.8570   -2.1970 hc        1 MOL      0.126428
     38 N3          3.8230   -4.2820   -1.0600 n         1 MOL     -0.462624
     39 C13         4.5840   -3.9980   -2.2920 c3        1 MOL      0.022366
     40 C14         6.0240   -3.3980   -2.2010 c         1 MOL      0.402397
     41 O6          6.8740   -3.6230   -3.0990 o         1 MOL     -0.572712
     42 C15         3.6690   -3.1870   -3.3120 c3        1 MOL     -0.191132
     43 C16         3.3980   -1.7850   -2.8760 c         1 MOL      0.805579
     44 O7          3.9600   -1.2230   -1.9350 o         1 MOL     -0.750475
     45 O8          2.3680   -1.2520   -3.2930 o         1 MOL     -0.750475
     46 H19         3.5770   -3.5330   -0.4390 hn        1 MOL      0.395375
     47 H20         4.8190   -5.0090   -2.6250 h1        1 MOL      0.099623
     48 H21         2.7600   -3.7270   -3.5440 hc        1 MOL      0.057556
     49 H22         4.1560   -3.2550   -4.2880 hc        1 MOL      0.057556
     50 N4          6.3540   -2.7200   -1.0810 n         1 MOL      0.033119
     51 C17         7.6140   -2.2080   -0.7060 c3        1 MOL     -0.305093
     52 C18         7.8460   -0.6870   -1.0400 c         1 MOL      0.564191
     53 O9          8.8770   -0.0920   -0.8210 o         1 MOL     -0.617116
     54 H23         5.5890   -2.6460   -0.4260 hn        1 MOL      0.000350
     55 H24         8.3750   -2.8700   -1.1280 h1        1 MOL      0.120003
     56 H25         7.7750   -2.2420    0.3680 h1        1 MOL      0.120003
     57 N5          6.7920   -0.0490   -1.5980 n         1 MOL     -0.302702
     58 C19         6.8330    1.3720   -2.0860 c3        1 MOL     -0.117906
     59 C20         6.8510    2.5560   -1.0720 c         1 MOL      0.366340
     60 O10         6.7980    3.7330   -1.4870 o         1 MOL     -0.507001
     61 C21         5.7080    1.5390   -3.1310 c3        1 MOL     -0.168448
     62 C22         4.3090    1.9500   -2.6540 c         1 MOL      0.785717
     63 O11         4.1350    1.8390   -1.4220 o         1 MOL     -0.729060
     64 O12         3.4690    2.3600   -3.5080 o         1 MOL     -0.729060
     65 H26         5.9680   -0.5750   -1.8480 hn        1 MOL      0.243022
     66 H27         7.7670    1.3990   -2.6310 h1        1 MOL      0.125106
     67 H28         5.6040    0.6630   -3.7760 hc        1 MOL      0.046117
     68 H29         5.9530    2.3440   -3.8180 hc        1 MOL      0.046117
     69 N6          6.9410    2.2750    0.2300 n         1 MOL     -0.043142
     70 C23         7.1460    3.2160    1.3380 c3        1 MOL     -0.368004
     71 C24         5.8690    4.0940    1.5780 c         1 MOL      0.706836
     72 O13         6.0370    5.1410    2.1630 o         1 MOL     -0.595772
     73 H30         7.1050    1.3120    0.5090 hn        1 MOL      0.244742
     74 H31         7.8330    4.0100    1.0390 h1        1 MOL      0.123050
     75 H32         7.4130    2.7210    2.2760 h1        1 MOL      0.123050
     76 N7          4.6680    3.6960    1.1230 n         1 MOL     -0.436506
     77 C25         3.4650    4.4350    1.3910 c3        1 MOL     -0.019578
     78 C26         2.1970    3.5510    1.2560 c         1 MOL      0.600026
     79 O14         2.1140    2.5140    0.6310 o         1 MOL     -0.586935
     80 C27         3.4170    5.7610    0.5450 c3        1 MOL     -0.272907
     81 C28         3.3260    5.4430   -0.9370 c3        1 MOL      0.018295
     82 C29         3.1930    6.7270   -1.7330 c         1 MOL      0.622481
     83 N8          3.6910    6.7670   -2.9330 n         1 MOL     -0.757846
     84 O15         2.7680    7.7800   -1.3300 o         1 MOL     -0.591992
     85 H33         4.6460    2.8830    0.5290 hn        1 MOL      0.252217
     86 H34         3.4890    4.7150    2.4490 h1        1 MOL      0.028016
     87 H35         4.2520    6.4260    0.7920 hc        1 MOL      0.101589
     88 H36         2.4430    6.2210    0.7530 hc        1 MOL      0.101589
     89 H37         2.4890    4.8010   -1.2390 hc        1 MOL      0.045138
     90 H38         4.2380    4.9780   -1.3150 hc        1 MOL      0.045138
     91 H39         3.8990    5.8560   -3.3290 hn        1 MOL      0.341883
     92 H40         3.5490    7.5720   -3.5240 hn        1 MOL      0.341883
     93 N9          1.1390    4.0590    1.8710 n         1 MOL     -0.320189
     94 C30        -0.1790    3.2780    2.0510 c3        1 MOL     -0.133469
     95 C31        -1.1800    3.5950    0.9180 c         1 MOL      0.552325
     96 O16        -1.5160    4.7360    0.6480 o         1 MOL     -0.614320
     97 C32        -0.8070    3.4640    3.4960 c3        1 MOL      0.211149
     98 C33        -2.2500    2.9660    3.6410 c3        1 MOL     -0.445183
     99 C34        -0.0130    2.7270    4.5640 c3        1 MOL     -0.445183
    100 H41         1.2580    4.9710    2.2770 hn        1 MOL      0.262549
    101 H42         0.0320    2.2080    1.9390 h1        1 MOL      0.143864
    102 H43        -0.8430    4.5220    3.7790 hc        1 MOL     -0.014341
    103 H44        -2.8630    3.4730    2.8920 hc        1 MOL      0.118922
    104 H45        -2.1590    1.8980    3.4310 hc        1 MOL      0.118922
    105 H46        -2.5590    3.2900    4.6270 hc        1 MOL      0.118922
    106 H47        -0.4010    2.7730    5.5920 hc        1 MOL      0.118922
    107 H48        -0.0410    1.6640    4.3330 hc        1 MOL      0.118922
    108 H49         1.0240    3.0390    4.4750 hc        1 MOL      0.118922
    109 N10        -1.6360    2.5890    0.2270 n         1 MOL     -0.088953
    110 C35        -2.6070    2.5620   -0.8950 c3        1 MOL      0.115245
    111 C36        -4.0440    2.2230   -0.3060 c         1 MOL      0.306446
    112 O17        -4.1170    1.6060    0.7790 o         1 MOL     -0.423206
    113 C37        -2.1690    1.5340   -1.9570 c3        1 MOL     -0.187101
    114 C38        -3.1250    1.5080   -3.1530 c         1 MOL      0.633632
    115 N11        -3.5240    2.6590   -3.6910 n         1 MOL     -0.773323
    116 O18        -3.6630    0.4580   -3.5060 o         1 MOL     -0.534382
    117 H50        -1.1470    1.7170    0.3410 hn        1 MOL      0.017308
    118 H51        -2.7100    3.5390   -1.3680 h1        1 MOL     -0.005168
    119 H52        -1.9930    0.5570   -1.4860 hc        1 MOL      0.103239
    120 H53        -1.2760    1.9610   -2.4180 hc        1 MOL      0.103239
    121 H54        -3.1730    3.5290   -3.3190 hn        1 MOL      0.355732
    122 H55        -4.2750    2.5550   -4.3550 hn        1 MOL      0.355732
    123 N12        -5.0860    2.4780   -1.1000 n         1 MOL     -0.306767
    124 C39        -6.4050    2.0500   -0.7020 c3        1 MOL      0.077001
    125 C40        -6.4870    0.5610   -0.5500 c         1 MOL      0.810475
    126 O19        -7.1540    0.1120    0.3230 o         1 MOL     -0.534490
    127 C41        -7.3750    2.7470   -1.6320 c3        1 MOL     -0.180177
    128 C42        -8.8670    2.4230   -1.2710 ca        1 MOL     -0.047210
    129 C43        -9.3410    2.8550    0.0170 ca        1 MOL     -0.160472
    130 C44        -9.6160    1.5160   -2.0630 ca        1 MOL     -0.160472
    131 C45       -10.6790    2.5320    0.3380 ca        1 MOL     -0.229161
    132 C46       -10.9200    1.1470   -1.6710 ca        1 MOL     -0.229161
    133 C47       -11.4820    1.6570   -0.4730 ca        1 MOL      0.338927
    134 O20       -12.7310    1.3720   -0.0380 oh        1 MOL     -0.543902
    135 H56        -4.9640    3.2150   -1.7850 hn        1 MOL      0.211069
    136 H57        -6.5150    2.4960    0.2800 h1        1 MOL      0.072464
    137 H58        -7.1010    2.5180   -2.6650 hc        1 MOL      0.074480
    138 H59        -7.2250    3.8040   -1.4480 hc        1 MOL      0.074480
    139 H60        -8.6610    3.3200    0.7220 ha        1 MOL      0.156524
    140 H61        -9.2040    1.1460   -2.9880 ha        1 MOL      0.156524
    141 H62       -11.0990    2.8200    1.2860 ha        1 MOL      0.131295
    142 H63       -11.5320    0.5190   -2.3120 ha        1 MOL      0.131295
    143 H64       -13.1940    0.7110   -0.5630 ho        1 MOL      0.400908
    144 N13        -5.6790   -0.2770   -1.2640 n         1 MOL     -0.647080
    145 C48        -5.6640   -1.7550   -1.1810 c3        1 MOL      0.110043
    146 C49        -4.9690   -2.1400    0.1090 c         1 MOL      0.321061
    147 O21        -5.0630   -3.2950    0.5280 o         1 MOL     -0.509812
    148 C50        -4.9920   -2.3400   -2.4000 c3        1 MOL      0.219861
    149 C51        -5.2890   -3.8290   -2.6890 c3        1 MOL     -0.278550
    150 C52        -6.7830   -4.1040   -2.8910 c         1 MOL      0.711474
    151 O22        -7.4830   -4.3870   -1.8650 o         1 MOL     -0.747033
    152 O23        -7.2840   -3.8890   -3.9770 o         1 MOL     -0.747033
    153 H65        -5.0520    0.1140   -1.9530 hn        1 MOL      0.222577
    154 H66        -6.6880   -2.1040   -1.0210 h1        1 MOL      0.115553
    155 H67        -3.9150   -2.1510   -2.4000 hc        1 MOL     -0.016816
    156 H68        -5.2610   -1.7170   -3.2560 hc        1 MOL     -0.016816
    157 H69        -4.9310   -4.4540   -1.8760 hc        1 MOL      0.026806
    158 H70        -4.7900   -4.1760   -3.5880 hc        1 MOL      0.026806
    159 N14        -4.3330   -1.1780    0.8120 n         1 MOL     -0.102546
    160 C53        -3.6520   -1.4510    2.0770 c3        1 MOL     -0.166001
    161 C54        -4.3570   -0.7310    3.2820 c         1 MOL      0.475176
    162 O24        -3.9660   -0.9130    4.4100 o         1 MOL     -0.557478
    163 C55        -2.1300   -1.0450    1.9140 c3        1 MOL     -0.089578
    164 C56        -1.4060   -1.7670    0.8000 c3        1 MOL     -0.093283
    165 C57        -0.0190   -1.2210    0.5380 c         1 MOL      0.713928
    166 O25         0.9290   -1.9150    0.2050 o         1 MOL     -0.723605
    167 O26         0.1150    0.0250    0.4570 o         1 MOL     -0.723605
    168 H71        -4.3820   -0.2140    0.5130 hn        1 MOL      0.188513
    169 H72        -3.6870   -2.5000    2.3710 h1        1 MOL      0.118302
    170 H73        -1.6050   -1.1190    2.8700 hc        1 MOL      0.090381
    171 H74        -2.1830    0.0070    1.6630 hc        1 MOL      0.090381
    172 H75        -2.0440   -1.6950   -0.0800 hc        1 MOL      0.061646
    173 H76        -1.3810   -2.8200    1.0980 hc        1 MOL      0.061646
    174 N15        -5.3830    0.0680    2.9350 n         1 MOL     -0.104967
    175 C58        -6.3240    0.7650    3.8860 c3        1 MOL     -0.127249
    176 H77        -6.6950    1.6800    3.4230 h1        1 MOL      0.061088
    177 H78        -7.1630    0.1080    4.1160 h1        1 MOL      0.061088
    178 H79        -5.7940    1.0140    4.8050 h1        1 MOL      0.061088
    179 H80        -5.5630    0.2740    1.9610 hn        1 MOL      0.018281
    180 Ca1         2.6170    0.1100   -0.1580 Ca        1 MOL      1.770576
    181 O27         2.4830    0.2760    2.8010 oh        1 MOL     -0.880203
    182 H81         1.6990   -0.0870    3.2110 ho        1 MOL      0.420961
    183 H82         3.0640    0.4810    3.5370 ho        1 MOL      0.420961
    184 O28         5.2190   -0.0530    1.0240 oh        1 MOL     -0.880203
    185 H83         5.5800   -0.0320    1.9160 ho        1 MOL      0.420961
    186 H84         5.1420   -0.9880    0.8300 ho        1 MOL      0.420961
    187 O29         1.4060    1.1260   -2.5400 oh        1 MOL     -0.880203
    188 H85         1.6090    0.2920   -2.9540 ho        1 MOL      0.420961
    189 H86         2.0390    1.7420   -2.9060 ho        1 MOL      0.420961
@<TRIPOS>BOND
     1    1    2 1   
     2    1    4 1   
     3    1    5 1   
     4    1    6 1   
     5    2    3 2   
     6    2    7 1   
     7    7    8 1   
     8    7   15 1   
     9    8    9 1   
    10    8   11 1   
    11    8   16 1   
    12    9   10 2   
    13    9   19 1   
    14   11   12 1   
    15   11   17 1   
    16   11   18 1   
    17   12   13 1   
    18   12   14 1   
    19   19   20 1   
    20   19   27 1   
    21   20   21 1   
    22   20   23 1   
    23   20   28 1   
    24   21   22 2   
    25   21   38 1   
    26   23   24 1   
    27   23   25 1   
    28   23   29 1   
    29   24   26 1   
    30   24   30 1   
    31   24   31 1   
    32   25   32 1   
    33   25   33 1   
    34   25   34 1   
    35   26   35 1   
    36   26   36 1   
    37   26   37 1   
    38   38   39 1   
    39   38   46 1   
    40   39   40 1   
    41   39   42 1   
    42   39   47 1   
    43   40   41 2   
    44   40   50 1   
    45   42   43 1   
    46   42   48 1   
    47   42   49 1   
    48   43   44 1   
    49   43   45 1   
    50   50   51 1   
    51   50   54 1   
    52   51   52 1   
    53   51   55 1   
    54   51   56 1   
    55   52   53 2   
    56   52   57 1   
    57   57   58 1   
    58   57   65 1   
    59   58   59 1   
    60   58   61 1   
    61   58   66 1   
    62   59   60 2   
    63   59   69 1   
    64   61   62 1   
    65   61   67 1   
    66   61   68 1   
    67   62   63 1   
    68   62   64 1   
    69   69   70 1   
    70   69   73 1   
    71   70   71 1   
    72   70   74 1   
    73   70   75 1   
    74   71   72 2   
    75   71   76 1   
    76   76   77 1   
    77   76   85 1   
    78   77   78 1   
    79   77   80 1   
    80   77   86 1   
    81   78   79 2   
    82   78   93 1   
    83   80   81 1   
    84   80   87 1   
    85   80   88 1   
    86   81   82 1   
    87   81   89 1   
    88   81   90 1   
    89   82   83 1   
    90   82   84 2   
    91   83   91 1   
    92   83   92 1   
    93   93   94 1   
    94   93  100 1   
    95   94   95 1   
    96   94   97 1   
    97   94  101 1   
    98   95   96 2   
    99   95  109 1   
   100   97   98 1   
   101   97   99 1   
   102   97  102 1   
   103   98  103 1   
   104   98  104 1   
   105   98  105 1   
   106   99  106 1   
   107   99  107 1   
   108   99  108 1   
   109  109  110 1   
   110  109  117 1   
   111  110  111 1   
   112  110  113 1   
   113  110  118 1   
   114  111  112 2   
   115  111  123 1   
   116  113  114 1   
   117  113  119 1   
   118  113  120 1   
   119  114  115 1   
   120  114  116 2   
   121  115  121 1   
   122  115  122 1   
   123  123  124 1   
   124  123  135 1   
   125  124  125 1   
   126  124  127 1   
   127  124  136 1   
   128  125  126 2   
   129  125  144 1   
   130  127  128 1   
   131  127  137 1   
   132  127  138 1   
   133  128  129 ar  
   134  128  130 ar  
   135  129  131 ar  
   136  129  139 1   
   137  130  132 ar  
   138  130  140 1   
   139  131  133 ar  
   140  131  141 1   
   141  132  133 ar  
   142  132  142 1   
   143  133  134 1   
   144  134  143 1   
   145  144  145 1   
   146  144  153 1   
   147  145  146 1   
   148  145  148 1   
   149  145  154 1   
   150  146  147 2   
   151  146  159 1   
   152  148  149 1   
   153  148  155 1   
   154  148  156 1   
   155  149  150 1   
   156  149  157 1   
   157  149  158 1   
   158  150  151 1   
   159  150  152 1   
   160  159  160 1   
   161  159  168 1   
   162  160  161 1   
   163  160  163 1   
   164  160  169 1   
   165  161  162 2   
   166  161  174 1   
   167  163  164 1   
   168  163  170 1   
   169  163  171 1   
   170  164  165 1   
   171  164  172 1   
   172  164  173 1   
   173  165  166 1   
   174  165  167 1   
   175  174  175 1   
   176  174  179 1   
   177  175  176 1   
   178  175  177 1   
   179  175  178 1   
   180  181  182 1   
   181  181  183 1   
   182  184  185 1   
   183  184  186 1   
   184  187  188 1   
   185  187  189 1   
@<TRIPOS>SUBSTRUCTURE
     1 MOL         1 TEMP              0 ****  ****    0 ROOT
