@<TRIPOS>MOLECULE
MOL
  189   185     1     0     0
SMALL
resp


@<TRIPOS>ATOM
      1 C1          0.7420   -0.3010    6.6600 c3        1 MOL     -0.235625
      2 C2          0.7220   -0.4220    5.1280 c         1 MOL      0.761607
      3 O1         -0.1280   -1.0200    4.5150 o         1 MOL     -0.594562
      4 H1          1.0960   -1.2360    7.0930 hc        1 MOL      0.058975
      5 H2          1.4090    0.5110    6.9530 hc        1 MOL      0.058975
      6 H3         -0.2650   -0.0920    7.0220 hc        1 MOL      0.058975
      7 N1          1.8590   -0.0390    4.4840 n         1 MOL     -0.659234
      8 C3          2.2000   -0.4860    3.0890 c3        1 MOL      0.208613
      9 C4          2.5880   -1.9910    3.1090 c         1 MOL      0.532636
     10 O2          3.4020   -2.3910    3.9830 o         1 MOL     -0.590748
     11 C5          3.4230    0.3960    2.5880 c3        1 MOL     -0.112373
     12 C6          4.1000   -0.1540    1.3470 c         1 MOL      0.744780
     13 O3          5.2940   -0.2580    1.1870 o         1 MOL     -0.655847
     14 O4          3.2950   -0.6790    0.5420 o         1 MOL     -0.655847
     15 H4          2.5350    0.4490    5.0580 hn        1 MOL      0.317928
     16 H5          1.3790   -0.3610    2.3820 h1        1 MOL      0.026197
     17 H6          4.2080    0.4570    3.3450 hc        1 MOL      0.006041
     18 H7          2.9510    1.3580    2.3680 hc        1 MOL      0.006041
     19 N2          2.2390   -2.7860    2.0870 n         1 MOL     -0.174328
     20 C7          2.6290   -4.2210    1.9720 c3        1 MOL     -0.087140
     21 C8          3.8310   -4.5540    1.0550 c         1 MOL      0.507274
     22 O5          4.1350   -5.7110    0.8940 o         1 MOL     -0.536786
     23 C9          1.2850   -4.9350    1.5100 c3        1 MOL     -0.114006
     24 C10         1.1510   -4.5680   -0.0010 c3        1 MOL      0.245286
     25 C11        -0.2350   -4.8040   -0.4970 c3        1 MOL      0.040398
     26 C12        -0.4510   -4.2030   -1.9820 c3        1 MOL      0.134085
     27 N3          0.5960   -4.6690   -2.9790 n4        1 MOL     -0.452377
     28 H8          1.6060   -2.3450    1.4360 hn        1 MOL      0.009728
     29 H9          2.8680   -4.6000    2.9700 h1        1 MOL      0.120752
     30 H10         0.4220   -4.5640    2.0720 hc        1 MOL      0.039976
     31 H11         1.3040   -6.0250    1.5360 hc        1 MOL      0.039976
     32 H12         1.7720   -5.2720   -0.5480 hc        1 MOL      0.000766
     33 H13         1.3820   -3.4940   -0.0580 hc        1 MOL      0.000766
     34 H14        -0.9240   -4.2280    0.1080 hc        1 MOL     -0.029314
     35 H15        -0.4510   -5.8790   -0.4710 hc        1 MOL     -0.029314
     36 H16        -0.4230   -3.1310   -1.7720 hx        1 MOL     -0.024629
     37 H17        -1.4370   -4.5590   -2.2930 hx        1 MOL     -0.024629
     38 H18         1.4750   -4.2150   -2.7480 hn        1 MOL      0.326550
     39 H19         0.7300   -5.6710   -2.9950 hn        1 MOL      0.326550
     40 H20         0.4200   -4.3810   -3.9250 hn        1 MOL      0.326550
     41 N4          4.4750   -3.5710    0.3790 n         1 MOL     -0.340161
     42 C13         5.4730   -3.7140   -0.6860 c3        1 MOL     -0.071060
     43 C14         6.8170   -3.1140   -0.3320 c         1 MOL      0.528296
     44 O6          7.8190   -3.4750   -0.9350 o         1 MOL     -0.538370
     45 C15         5.0210   -2.9360   -1.9550 c3        1 MOL     -0.036390
     46 C16         3.5200   -3.2560   -2.2930 c         1 MOL      0.728883
     47 O7          3.2450   -4.3200   -2.8620 o         1 MOL     -0.720145
     48 O8          2.6810   -2.4410   -1.9450 o         1 MOL     -0.720145
     49 H21         4.1320   -2.6280    0.5120 hn        1 MOL      0.148184
     50 H22         5.6040   -4.7710   -0.8960 h1        1 MOL      0.120978
     51 H23         5.7440   -3.2060   -2.7210 hc        1 MOL      0.006775
     52 H24         5.1370   -1.8740   -1.7660 hc        1 MOL      0.006775
     53 N5          6.9430   -2.2240    0.6620 n         1 MOL     -0.301019
     54 C17         8.1550   -1.4980    0.7630 c3        1 MOL     -0.367368
     55 C18         8.2390   -0.3830   -0.3190 c         1 MOL      0.487289
     56 O9          9.3210    0.0260   -0.7140 o         1 MOL     -0.555230
     57 H25         6.0760   -1.8460    1.0090 hn        1 MOL      0.265593
     58 H26         8.9960   -2.1580    0.5420 h1        1 MOL      0.174800
     59 H27         8.1320   -0.9250    1.6880 h1        1 MOL      0.174800
     60 N6          7.1270   -0.0800   -1.0030 n         1 MOL     -0.152443
     61 C19         7.0930    0.9780   -1.9740 c3        1 MOL     -0.013593
     62 C20         6.6630    2.2890   -1.2850 c         1 MOL      0.310067
     63 O10         6.8750    3.3670   -1.8790 o         1 MOL     -0.523118
     64 C21         6.0560    0.6610   -3.0510 c3        1 MOL     -0.305855
     65 C22         4.5020    0.5470   -2.7440 c         1 MOL      0.805124
     66 O11         3.6930   -0.1160   -3.4650 o         1 MOL     -0.768123
     67 O12         4.0000    1.1460   -1.7450 o         1 MOL     -0.768123
     68 H28         6.2850   -0.5020   -0.6380 hn        1 MOL      0.267320
     69 H29         8.0800    1.0360   -2.4430 h1        1 MOL      0.137586
     70 H30         6.4640   -0.2360   -3.5190 hc        1 MOL      0.093490
     71 H31         6.1530    1.4580   -3.7930 hc        1 MOL      0.093490
     72 N7          6.1620    2.2920   -0.0520 n         1 MOL     -0.001397
     73 C23         5.9210    3.4390    0.8480 c3        1 MOL     -0.264543
     74 C24         4.6830    4.2190    0.4870 c         1 MOL      0.581841
     75 O13         4.5890    5.4180    0.7950 o         1 MOL     -0.567330
     76 H32         6.2050    1.4020    0.4130 hn        1 MOL      0.125017
     77 H33         6.7250    4.1630    0.6910 h1        1 MOL      0.113077
     78 H34         5.7120    3.0850    1.8570 h1        1 MOL      0.113077
     79 N8          3.6490    3.6000   -0.0880 n         1 MOL     -0.164867
     80 C25         2.4610    4.3820   -0.5860 c3        1 MOL     -0.464968
     81 C26         1.1810    3.5970   -0.2880 c         1 MOL      0.685022
     82 O14         1.1950    2.3590   -0.5400 o         1 MOL     -0.652478
     83 C27         2.5550    4.6640   -2.1200 c3        1 MOL      0.534427
     84 C28         3.3650    5.9260   -2.2810 c3        1 MOL     -0.536965
     85 O15         3.1810    3.6520   -2.8070 oh        1 MOL     -0.577920
     86 H35         3.7380    2.6210   -0.3320 hn        1 MOL      0.162606
     87 H36         2.3770    5.3140   -0.0170 h1        1 MOL      0.185295
     88 H37         1.5730    4.8000   -2.5710 h1        1 MOL     -0.024015
     89 H38         3.5260    3.0280   -2.1660 ho        1 MOL      0.406970
     90 H39         4.4050    5.7640   -2.0010 hc        1 MOL      0.137009
     91 H40         3.4010    6.1920   -3.3480 hc        1 MOL      0.137009
     92 H41         2.9270    6.7230   -1.6850 hc        1 MOL      0.137009
     93 N9          0.1520    4.3120    0.3340 n         1 MOL     -0.682291
     94 C29        -1.0380    3.5960    0.7710 c3        1 MOL      0.389235
     95 C30        -2.1300    3.5670   -0.3040 c         1 MOL      0.339323
     96 O16        -2.6060    4.6810   -0.6700 o         1 MOL     -0.556277
     97 C31        -1.3520    3.9650    2.2320 c3        1 MOL     -0.021744
     98 C32        -0.2320    4.3190    3.2650 c3        1 MOL      0.015824
     99 C33        -2.2050    2.8140    2.7960 c3        1 MOL     -0.366163
    100 C34         0.7260    3.1220    3.4560 c3        1 MOL      0.032861
    101 H42         0.2960    5.2990    0.4810 hn        1 MOL      0.354990
    102 H43        -0.8000    2.5340    0.8330 h1        1 MOL      0.067286
    103 H44        -1.9400    4.8780    2.1810 hc        1 MOL     -0.007074
    104 H45        -0.6090    4.5790    4.2530 hc        1 MOL      0.018674
    105 H46         0.3990    5.1590    2.9830 hc        1 MOL      0.018674
    106 H47        -2.5780    2.9180    3.8140 hc        1 MOL      0.085221
    107 H48        -3.0630    2.5980    2.1600 hc        1 MOL      0.085221
    108 H49        -1.5050    1.9720    2.7530 hc        1 MOL      0.085221
    109 H50         0.3460    2.2930    4.0420 hc        1 MOL     -0.017794
    110 H51         1.0900    2.7230    2.5030 hc        1 MOL     -0.017794
    111 H52         1.6360    3.4890    3.9170 hc        1 MOL     -0.017794
    112 N10        -2.6610    2.4360   -0.7210 n         1 MOL     -0.040888
    113 C35        -3.8810    2.2960   -1.6260 c3        1 MOL     -0.023567
    114 C36        -5.0950    2.0540   -0.7510 c         1 MOL      0.318128
    115 O17        -5.0050    1.6460    0.4380 o         1 MOL     -0.204583
    116 C37        -3.7730    1.1460   -2.5710 c3        1 MOL      0.281828
    117 C38        -2.7450    1.4210   -3.6600 c3        1 MOL     -0.540134
    118 O18        -3.1820   -0.0580   -1.9740 oh        1 MOL     -0.636556
    119 H53        -2.2230    1.6190   -0.3260 hn        1 MOL     -0.017357
    120 H54        -3.9490    3.2900   -2.0600 h1        1 MOL      0.090220
    121 H55        -4.7660    0.9140   -2.9520 h1        1 MOL      0.048560
    122 H56        -2.3470    0.2090   -1.5950 ho        1 MOL      0.540099
    123 H57        -2.6920    0.5610   -4.3160 hc        1 MOL      0.137583
    124 H58        -2.9890    2.3200   -4.2240 hc        1 MOL      0.137583
    125 H59        -1.7410    1.5310   -3.2530 hc        1 MOL      0.137583
    126 N11        -6.2700    2.0790   -1.3530 n         1 MOL     -0.354661
    127 C39        -7.6050    1.7460   -0.7740 c3        1 MOL     -0.033049
    128 C40        -7.5500    0.5450    0.1970 c         1 MOL      0.197361
    129 O19        -7.8240    0.7510    1.3650 o         1 MOL     -0.435754
    130 C41        -8.7500    1.6750   -1.7460 c3        1 MOL      0.307793
    131 C42        -9.0970    3.0150   -2.3480 c3        1 MOL     -0.652625
    132 O20        -8.3060    0.7640   -2.7690 oh        1 MOL     -0.635762
    133 H60        -6.3020    2.2090   -2.3550 hn        1 MOL      0.267683
    134 H61        -7.9360    2.5330   -0.0870 h1        1 MOL      0.127517
    135 H62        -9.7000    1.2500   -1.4080 h1        1 MOL      0.031108
    136 H63        -9.0170    0.5270   -3.3710 ho        1 MOL      0.402106
    137 H64       -10.0240    2.9020   -2.9100 hc        1 MOL      0.196728
    138 H65        -9.2720    3.6730   -1.5050 hc        1 MOL      0.196728
    139 H66        -8.2920    3.2800   -3.0370 hc        1 MOL      0.196728
    140 N12        -7.2190   -0.5950   -0.3700 n         1 MOL      0.080147
    141 C43        -7.0880   -1.8080    0.3880 c3        1 MOL     -0.064136
    142 C44        -6.1810   -1.7790    1.5910 c         1 MOL      0.419927
    143 O21        -6.4550   -2.4550    2.5470 o         1 MOL     -0.482607
    144 C45        -6.6590   -2.9630   -0.5550 c3        1 MOL     -0.250357
    145 C46        -7.4480   -3.2070   -1.8390 c3        1 MOL      0.015822
    146 C47        -9.0180   -3.1200   -1.6190 c3        1 MOL     -0.112766
    147 C48        -9.7510   -3.3820   -2.9200 c3        1 MOL     -0.075174
    148 N13       -11.2070   -3.2260   -2.5430 n4        1 MOL     -0.271542
    149 H67        -7.3560   -0.6830   -1.3620 hn        1 MOL      0.120656
    150 H68        -8.0550   -2.1460    0.7680 h1        1 MOL      0.044948
    151 H69        -6.6500   -3.9350   -0.0670 hc        1 MOL      0.110552
    152 H70        -5.6330   -2.6860   -0.8150 hc        1 MOL      0.110552
    153 H71        -7.3060   -4.1830   -2.3140 hc        1 MOL      0.040960
    154 H72        -7.0570   -2.4440   -2.5200 hc        1 MOL      0.040960
    155 H73        -9.3370   -2.1840   -1.1590 hc        1 MOL      0.089175
    156 H74        -9.3870   -3.9070   -0.9660 hc        1 MOL      0.089175
    157 H75        -9.6260   -4.4280   -3.2290 hx        1 MOL      0.120237
    158 H76        -9.4890   -2.7240   -3.7400 hx        1 MOL      0.120237
    159 H77       -11.2960   -2.2120   -2.5250 hn        1 MOL      0.295501
    160 H78       -11.8460   -3.5630   -3.2630 hn        1 MOL      0.295501
    161 H79       -11.3850   -3.6340   -1.6470 hn        1 MOL      0.295501
    162 N14        -4.9920   -1.1110    1.5080 n         1 MOL     -0.238013
    163 C49        -3.9160   -0.9730    2.5410 c3        1 MOL     -0.057113
    164 C50        -4.4440    0.0660    3.6490 c         1 MOL      0.421415
    165 O22        -4.3130   -0.1470    4.8420 o         1 MOL     -0.535061
    166 C51        -2.6200   -0.5330    1.8520 c3        1 MOL      0.059481
    167 C52        -1.8460   -1.5260    0.9150 c3        1 MOL     -0.006711
    168 C53        -0.6710   -0.8700    0.2270 c         1 MOL      0.976817
    169 O23         0.4520   -1.3820    0.3220 o         1 MOL     -0.824909
    170 O24        -0.8450    0.1190   -0.4580 o         1 MOL     -0.824909
    171 H80        -5.0280   -0.4160    0.7720 hn        1 MOL      0.034124
    172 H81        -3.6400   -1.8460    3.1400 h1        1 MOL      0.123989
    173 H82        -1.9440   -0.2420    2.6610 hc        1 MOL      0.022993
    174 H83        -2.8540    0.3640    1.2860 hc        1 MOL      0.022993
    175 H84        -2.4570   -1.8950    0.0940 hc        1 MOL     -0.019970
    176 H85        -1.5490   -2.3690    1.5360 hc        1 MOL     -0.019970
    177 N15        -5.1410    1.1100    3.2280 n         1 MOL      0.041796
    178 C54        -5.8580    2.1150    4.0570 c3        1 MOL     -0.369793
    179 H86        -6.5630    2.6640    3.4330 h1        1 MOL      0.128609
    180 H87        -6.3990    1.6070    4.8560 h1        1 MOL      0.128609
    181 H88        -5.1390    2.8110    4.4890 h1        1 MOL      0.128609
    182 H89        -5.2180    1.2720    2.2290 hn        1 MOL      0.055034
    183 Ca1         1.7620   -0.1450   -1.4800 Ca        1 MOL      1.786562
    184 O25        -0.3390   -1.0440   -3.2290 oh        1 MOL     -0.807450
    185 H90        -1.2190   -1.2100   -3.5680 ho        1 MOL      0.386550
    186 H91         0.2380   -1.5000   -3.8400 ho        1 MOL      0.386550
    187 O26         1.1530    1.8990   -3.5390 oh        1 MOL     -0.807450
    188 H92         0.4040    1.8710   -4.1240 ho        1 MOL      0.386550
    189 H93         1.7250    2.5780   -3.9110 ho        1 MOL      0.386550
@<TRIPOS>BOND
     1    1    2 1   
     2    1    4 1   
     3    1    5 1   
     4    1    6 1   
     5    2    3 2   
     6    2    7 1   
     7    7    8 1   
     8    7   15 1   
     9    8    9 1   
    10    8   11 1   
    11    8   16 1   
    12    9   10 2   
    13    9   19 1   
    14   11   12 1   
    15   11   17 1   
    16   11   18 1   
    17   12   13 1   
    18   12   14 1   
    19   19   20 1   
    20   19   28 1   
    21   20   21 1   
    22   20   23 1   
    23   20   29 1   
    24   21   22 2   
    25   21   41 1   
    26   23   24 1   
    27   23   30 1   
    28   23   31 1   
    29   24   25 1   
    30   24   32 1   
    31   24   33 1   
    32   25   26 1   
    33   25   34 1   
    34   25   35 1   
    35   26   27 1   
    36   26   36 1   
    37   26   37 1   
    38   27   38 1   
    39   27   39 1   
    40   27   40 1   
    41   41   42 1   
    42   41   49 1   
    43   42   43 1   
    44   42   45 1   
    45   42   50 1   
    46   43   44 2   
    47   43   53 1   
    48   45   46 1   
    49   45   51 1   
    50   45   52 1   
    51   46   47 1   
    52   46   48 1   
    53   53   54 1   
    54   53   57 1   
    55   54   55 1   
    56   54   58 1   
    57   54   59 1   
    58   55   56 2   
    59   55   60 1   
    60   60   61 1   
    61   60   68 1   
    62   61   62 1   
    63   61   64 1   
    64   61   69 1   
    65   62   63 2   
    66   62   72 1   
    67   64   65 1   
    68   64   70 1   
    69   64   71 1   
    70   65   66 1   
    71   65   67 1   
    72   72   73 1   
    73   72   76 1   
    74   73   74 1   
    75   73   77 1   
    76   73   78 1   
    77   74   75 2   
    78   74   79 1   
    79   79   80 1   
    80   79   86 1   
    81   80   81 1   
    82   80   83 1   
    83   80   87 1   
    84   81   82 2   
    85   81   93 1   
    86   83   84 1   
    87   83   85 1   
    88   83   88 1   
    89   84   90 1   
    90   84   91 1   
    91   84   92 1   
    92   85   89 1   
    93   93   94 1   
    94   93  101 1   
    95   94   95 1   
    96   94   97 1   
    97   94  102 1   
    98   95   96 2   
    99   95  112 1   
   100   97   98 1   
   101   97   99 1   
   102   97  103 1   
   103   98  100 1   
   104   98  104 1   
   105   98  105 1   
   106   99  106 1   
   107   99  107 1   
   108   99  108 1   
   109  100  109 1   
   110  100  110 1   
   111  100  111 1   
   112  112  113 1   
   113  112  119 1   
   114  113  114 1   
   115  113  116 1   
   116  113  120 1   
   117  114  115 2   
   118  114  126 1   
   119  116  117 1   
   120  116  118 1   
   121  116  121 1   
   122  117  123 1   
   123  117  124 1   
   124  117  125 1   
   125  118  122 1   
   126  126  127 1   
   127  126  133 1   
   128  127  128 1   
   129  127  130 1   
   130  127  134 1   
   131  128  129 2   
   132  128  140 1   
   133  130  131 1   
   134  130  132 1   
   135  130  135 1   
   136  131  137 1   
   137  131  138 1   
   138  131  139 1   
   139  132  136 1   
   140  140  141 1   
   141  140  149 1   
   142  141  142 1   
   143  141  144 1   
   144  141  150 1   
   145  142  143 2   
   146  142  162 1   
   147  144  145 1   
   148  144  151 1   
   149  144  152 1   
   150  145  146 1   
   151  145  153 1   
   152  145  154 1   
   153  146  147 1   
   154  146  155 1   
   155  146  156 1   
   156  147  148 1   
   157  147  157 1   
   158  147  158 1   
   159  148  159 1   
   160  148  160 1   
   161  148  161 1   
   162  162  163 1   
   163  162  171 1   
   164  163  164 1   
   165  163  166 1   
   166  163  172 1   
   167  164  165 2   
   168  164  177 1   
   169  166  167 1   
   170  166  173 1   
   171  166  174 1   
   172  167  168 1   
   173  167  175 1   
   174  167  176 1   
   175  168  169 1   
   176  168  170 1   
   177  177  178 1   
   178  177  182 1   
   179  178  179 1   
   180  178  180 1   
   181  178  181 1   
   182  184  185 1   
   183  184  186 1   
   184  187  188 1   
   185  187  189 1   
@<TRIPOS>SUBSTRUCTURE
     1 MOL         1 TEMP              0 ****  ****    0 ROOT
