@<TRIPOS>MOLECULE
MOL
  179   176     1     0     0
SMALL
resp


@<TRIPOS>ATOM
      1 C1          2.5600    2.4140    5.1350 c3        1 MOL     -0.501590
      2 C2          1.7820    2.2470    3.8650 c         1 MOL      0.738885
      3 O1          2.3130    2.0720    2.7810 o         1 MOL     -0.612642
      4 H1          2.6510    1.4500    5.6350 hc        1 MOL      0.135663
      5 H2          3.5540    2.7980    4.9050 hc        1 MOL      0.135663
      6 H3          2.0410    3.1140    5.7900 hc        1 MOL      0.135663
      7 N1          0.4780    2.4430    3.8380 n         1 MOL     -0.592957
      8 C3         -0.3330    2.3810    2.6300 c3        1 MOL      0.180484
      9 C4         -0.3550    3.7350    1.9040 c         1 MOL      0.430293
     10 O2         -0.9640    4.6820    2.3950 o         1 MOL     -0.558646
     11 C5         -1.7500    1.8530    2.9540 c3        1 MOL     -0.101635
     12 C6         -2.6550    1.7670    1.7140 c         1 MOL      0.775261
     13 O3         -3.8680    1.8980    1.7490 o         1 MOL     -0.756796
     14 O4         -2.0980    1.6370    0.5600 o         1 MOL     -0.756796
     15 H4          0.1180    2.7390    4.7400 hn        1 MOL      0.297477
     16 H5          0.1610    1.6520    1.9870 h1        1 MOL      0.040405
     17 H6         -2.3090    2.4520    3.6790 hc        1 MOL      0.029278
     18 H7         -1.6560    0.8370    3.3530 hc        1 MOL      0.029278
     19 N2          0.3880    3.8540    0.7620 n         1 MOL     -0.058073
     20 C7          0.4010    5.1400    0.0490 c3        1 MOL      0.145853
     21 C8         -0.7280    5.5100   -0.9270 c         1 MOL      0.410635
     22 O5         -0.9680    6.7190   -0.9310 o         1 MOL     -0.524839
     23 C9          1.7990    5.2730   -0.6640 c3        1 MOL     -0.272547
     24 C10         2.8500    5.9780    0.1860 c3        1 MOL      0.016653
     25 C11         3.5130    5.1070    1.3270 c3        1 MOL     -0.031740
     26 C12         4.3820    6.1240    2.0940 c3        1 MOL     -0.163158
     27 N3          3.5530    7.0250    2.9230 n4        1 MOL     -0.387391
     28 H8          0.6560    3.0120    0.2870 hn        1 MOL      0.028416
     29 H9          0.4580    5.8980    0.8330 h1        1 MOL      0.016415
     30 H10         1.6640    5.9150   -1.5240 hc        1 MOL      0.109782
     31 H11         2.2200    4.3250   -1.0100 hc        1 MOL      0.109782
     32 H12         2.2610    6.7770    0.6290 hc        1 MOL      0.019214
     33 H13         3.7080    6.2880   -0.4170 hc        1 MOL      0.019214
     34 H14         4.1450    4.3500    0.8720 hc        1 MOL      0.083036
     35 H15         2.7640    4.6000    1.9370 hc        1 MOL      0.083036
     36 H16         4.9980    6.6410    1.3540 hx        1 MOL      0.143714
     37 H17         5.0270    5.5530    2.7730 hx        1 MOL      0.143714
     38 H18         2.8160    6.4860    3.3470 hn        1 MOL      0.340356
     39 H19         4.1680    7.4470    3.6120 hn        1 MOL      0.340356
     40 H20         3.0660    7.6960    2.3540 hn        1 MOL      0.340356
     41 N4         -1.4640    4.5490   -1.5890 n         1 MOL     -0.460050
     42 C13        -2.4440    4.9010   -2.6490 c3        1 MOL      0.177723
     43 C14        -3.8650    4.8300   -2.1500 c         1 MOL      0.338912
     44 O6         -4.8790    5.2250   -2.7200 o         1 MOL     -0.526539
     45 C15        -2.3200    4.0930   -3.9800 c3        1 MOL     -0.197766
     46 C16        -2.2480    2.5910   -3.8110 c         1 MOL      0.755217
     47 O7         -2.3330    2.0110   -2.7020 o         1 MOL     -0.712843
     48 O8         -2.1020    1.8360   -4.7980 o         1 MOL     -0.712843
     49 H21        -1.0470    3.6220   -1.5590 hn        1 MOL      0.269792
     50 H22        -2.3850    5.9300   -2.9930 h1        1 MOL      0.077957
     51 H23        -1.4340    4.4440   -4.5150 hc        1 MOL      0.060243
     52 H24        -3.1200    4.4280   -4.6350 hc        1 MOL      0.060243
     53 N5         -3.9540    4.2770   -0.9340 n         1 MOL     -0.035804
     54 C17        -5.1600    4.2420   -0.1230 c3        1 MOL     -0.415552
     55 C18        -5.9470    2.9720   -0.2270 c         1 MOL      0.703425
     56 O9         -7.0830    2.8980    0.2570 o         1 MOL     -0.626247
     57 H25        -3.1130    4.0170   -0.4450 hn        1 MOL      0.215425
     58 H26        -5.8510    5.0010   -0.4730 h1        1 MOL      0.160020
     59 H27        -4.9620    4.4310    0.9330 h1        1 MOL      0.160020
     60 N6         -5.4710    1.9590   -0.9130 n         1 MOL     -0.265880
     61 C19        -6.2510    0.7260   -1.2160 c3        1 MOL     -0.163412
     62 C20        -6.4200   -0.2420   -0.0060 c         1 MOL      0.444489
     63 O10        -6.9970   -1.3360   -0.1480 o         1 MOL     -0.500821
     64 C21        -5.7010    0.0160   -2.4580 c3        1 MOL     -0.205875
     65 C22        -4.3230   -0.6360   -2.3780 c         1 MOL      0.684851
     66 N7         -3.6860   -0.9380   -3.4870 n         1 MOL     -0.696044
     67 O11        -3.8210   -0.8450   -1.3240 o         1 MOL     -0.518218
     68 H28        -4.5430    2.0350   -1.2900 hn        1 MOL      0.164584
     69 H29        -7.3120    0.8790   -1.4280 h1        1 MOL      0.150892
     70 H30        -5.6380    0.7010   -3.3030 hc        1 MOL      0.090727
     71 H31        -6.3860   -0.7870   -2.7220 hc        1 MOL      0.090727
     72 H32        -4.1810   -0.8690   -4.3660 hn        1 MOL      0.316818
     73 H33        -2.8650   -1.5380   -3.4470 hn        1 MOL      0.316818
     74 N8         -6.0130    0.1340    1.1460 n         1 MOL     -0.264781
     75 C23        -6.0800   -0.6470    2.3890 c3        1 MOL     -0.255037
     76 C24        -5.0850   -1.8650    2.4710 c         1 MOL      0.466964
     77 O12        -5.1550   -2.6890    3.3870 o         1 MOL     -0.562772
     78 H34        -5.6760    1.0780    1.2330 hn        1 MOL      0.355692
     79 H35        -7.0760   -1.0780    2.4570 h1        1 MOL      0.141432
     80 H36        -5.9850   -0.0140    3.2770 h1        1 MOL      0.141432
     81 N9         -4.2000   -1.9880    1.5190 n         1 MOL     -0.012558
     82 C25        -3.1990   -3.0380    1.4620 c3        1 MOL     -0.298612
     83 C26        -1.7100   -2.5130    1.4300 c         1 MOL      0.678687
     84 O13        -1.4150   -1.5420    0.7020 o         1 MOL     -0.670357
     85 C27        -3.4790   -3.9000    0.2740 c3        1 MOL      0.352856
     86 C28        -4.7560   -4.7450    0.1490 ca        1 MOL     -0.455983
     87 C29        -5.6060   -4.6450   -0.9900 ca        1 MOL      0.197132
     88 C30        -5.2050   -5.4640    1.2680 ca        1 MOL      0.197132
     89 C31        -6.6400   -5.6010   -1.1460 ca        1 MOL     -0.427474
     90 C32        -6.2330   -6.4240    1.0770 ca        1 MOL     -0.427474
     91 C33        -6.8950   -6.5590   -0.1340 ca        1 MOL      0.436377
     92 O14        -7.9560   -7.3900   -0.2450 oh        1 MOL     -0.480944
     93 H37        -4.1920   -1.3110    0.7650 hn        1 MOL      0.079303
     94 H38        -3.3230   -3.6590    2.3560 h1        1 MOL      0.135214
     95 H39        -2.6090   -4.5380    0.1250 hc        1 MOL     -0.023233
     96 H40        -3.4490   -3.2280   -0.5870 hc        1 MOL     -0.023233
     97 H41        -5.3370   -3.8750   -1.6910 ha        1 MOL      0.035620
     98 H42        -4.7280   -5.4410    2.2330 ha        1 MOL      0.035620
     99 H43        -7.3300   -5.5640   -1.9730 ha        1 MOL      0.174771
    100 H44        -6.5570   -6.9420    1.9640 ha        1 MOL      0.174771
    101 H45        -7.9370   -8.0480    0.4520 ho        1 MOL      0.351482
    102 N10        -0.7500   -3.2430    2.0730 n         1 MOL     -0.576545
    103 C34         0.6570   -2.8180    2.0160 c3        1 MOL      0.267758
    104 C35         1.4660   -3.7800    1.0890 c         1 MOL      0.475025
    105 O15         1.3470   -5.0150    1.1980 o         1 MOL     -0.563103
    106 C36         1.3630   -2.7110    3.4000 c3        1 MOL      0.034834
    107 C37         0.5200   -1.9190    4.4200 c3        1 MOL      0.442165
    108 C38         2.7880   -2.0400    3.3640 c3        1 MOL     -0.411653
    109 C39         0.9350   -2.1700    5.8690 c3        1 MOL     -0.382818
    110 H46        -1.0530   -3.8160    2.8520 hn        1 MOL      0.285954
    111 H47         0.6580   -1.8280    1.5480 h1        1 MOL      0.003040
    112 H48         1.4600   -3.7420    3.7500 hc        1 MOL      0.006451
    113 H49        -0.5510   -2.1280    4.3790 hc        1 MOL     -0.100098
    114 H50         0.5110   -0.8840    4.0980 hc        1 MOL     -0.100098
    115 H51         3.1780   -1.9200    4.3840 hc        1 MOL      0.090609
    116 H52         3.5160   -2.5210    2.7180 hc        1 MOL      0.090609
    117 H53         2.7220   -1.0220    2.9900 hc        1 MOL      0.090609
    118 H54         0.7690   -3.2250    6.1090 hc        1 MOL      0.082391
    119 H55         1.9690   -1.8660    6.0350 hc        1 MOL      0.082391
    120 H56         0.3380   -1.4710    6.4490 hc        1 MOL      0.082391
    121 N11         2.3400   -3.2160    0.2610 n         1 MOL     -0.234597
    122 C40         3.1590   -3.8700   -0.7560 c3        1 MOL      0.018775
    123 C41         4.6660   -3.6620   -0.6890 c         1 MOL      0.423678
    124 O16         5.1360   -2.7540    0.0310 o         1 MOL     -0.373989
    125 C42         2.5210   -3.6170   -2.1240 c3        1 MOL     -0.147681
    126 O17         2.4770   -2.2350   -2.6510 oh        1 MOL     -0.604015
    127 H57         2.4940   -2.2240    0.3750 hn        1 MOL      0.248929
    128 H58         3.0850   -4.9590   -0.6840 h1        1 MOL      0.045858
    129 H59         1.4900   -3.9500   -2.1900 h1        1 MOL      0.127174
    130 H60         3.0910   -4.1060   -2.9180 h1        1 MOL      0.127174
    131 H61         1.9890   -1.6940   -2.0190 ho        1 MOL      0.425865
    132 N12         5.3860   -4.5150   -1.3510 n         1 MOL     -0.358271
    133 C43         6.8900   -4.4600   -1.3910 c3        1 MOL      0.138584
    134 C44         7.5180   -3.0200   -1.7310 c         1 MOL      0.457461
    135 O18         8.2910   -2.5260   -0.8880 o         1 MOL     -0.544263
    136 C45         7.4250   -5.5840   -2.2900 c3        1 MOL     -0.438995
    137 H62         4.8890   -5.0100   -2.0750 hn        1 MOL      0.256001
    138 H63         7.0890   -4.6250   -0.3390 h1        1 MOL      0.081452
    139 H64         8.4810   -5.7710   -2.0860 hc        1 MOL      0.137843
    140 H65         6.9640   -6.4980   -1.9280 hc        1 MOL      0.137843
    141 H66         7.3390   -5.2270   -3.3230 hc        1 MOL      0.137843
    142 N13         7.1510   -2.2850   -2.7430 n         1 MOL     -0.367102
    143 C46         7.6390   -0.9000   -2.9470 c3        1 MOL      0.024228
    144 C47         7.0840    0.1190   -1.8980 c         1 MOL      0.381876
    145 O19         7.5460    1.2600   -1.8810 o         1 MOL     -0.533679
    146 C48         7.1640   -0.4700   -4.3370 c3        1 MOL     -0.271300
    147 H67         6.5680   -2.6540   -3.4800 hn        1 MOL      0.292686
    148 H68         8.7320   -0.8790   -2.9120 h1        1 MOL      0.130719
    149 H69         7.5420    0.5490   -4.4690 hc        1 MOL      0.083916
    150 H70         7.5720   -1.0430   -5.1700 hc        1 MOL      0.083916
    151 H71         6.0800   -0.5630   -4.3730 hc        1 MOL      0.083916
    152 N14         6.1200   -0.2630   -1.0980 n         1 MOL      0.040912
    153 C49         5.6650    0.5260    0.0710 c3        1 MOL     -0.035678
    154 C50         6.4620    0.2850    1.3490 c         1 MOL      0.452467
    155 O20         6.8100    1.2320    2.0200 o         1 MOL     -0.565787
    156 C51         4.1240    0.4330    0.2540 c3        1 MOL      0.231062
    157 C52         3.4010    1.0030   -0.9770 c3        1 MOL     -0.106172
    158 C53         1.8830    0.7130   -1.0200 c         1 MOL      0.932521
    159 O21         0.9840    1.5540   -1.2820 o         1 MOL     -0.854590
    160 O22         1.4370   -0.4820   -0.9490 o         1 MOL     -0.854590
    161 H72         5.7920   -1.2150   -1.1040 hn        1 MOL      0.019963
    162 H73         5.7950    1.5850   -0.1900 h1        1 MOL      0.050331
    163 H74         3.8530    1.0210    1.1340 hc        1 MOL     -0.079162
    164 H75         3.8520   -0.5740    0.5620 hc        1 MOL     -0.079162
    165 H76         3.8840    0.6160   -1.8770 hc        1 MOL     -0.005539
    166 H77         3.5310    2.0860   -1.0670 hc        1 MOL     -0.005539
    167 N15         6.8370   -0.9510    1.5650 n         1 MOL     -0.123581
    168 C54         7.9160   -1.3160    2.4380 c3        1 MOL     -0.248416
    169 H78         7.5320   -1.9330    3.2500 h1        1 MOL      0.101961
    170 H79         8.6640   -1.8760    1.8790 h1        1 MOL      0.101961
    171 H80         8.3690   -0.4150    2.8520 h1        1 MOL      0.101961
    172 H81         6.3800   -1.6790    1.0340 hn        1 MOL      0.149988
    173 Ca1        -1.1510    0.1630   -1.3480 Ca        1 MOL      1.735595
    174 O23        -1.2200   -2.3180   -2.4010 oh        1 MOL     -0.819583
    175 H82        -0.9290   -2.3220   -3.3070 ho        1 MOL      0.398453
    176 H83        -1.4570   -3.2210   -2.2150 ho        1 MOL      0.398453
    177 O24        -0.4470    0.0310   -3.9060 oh        1 MOL     -0.819583
    178 H84        -1.1230    0.4940   -4.4000 ho        1 MOL      0.398453
    179 H85         0.3420    0.0980   -4.4480 ho        1 MOL      0.398453
@<TRIPOS>BOND
     1    1    2 1   
     2    1    4 1   
     3    1    5 1   
     4    1    6 1   
     5    2    3 2   
     6    2    7 1   
     7    7    8 1   
     8    7   15 1   
     9    8    9 1   
    10    8   11 1   
    11    8   16 1   
    12    9   10 2   
    13    9   19 1   
    14   11   12 1   
    15   11   17 1   
    16   11   18 1   
    17   12   13 1   
    18   12   14 1   
    19   19   20 1   
    20   19   28 1   
    21   20   21 1   
    22   20   23 1   
    23   20   29 1   
    24   21   22 2   
    25   21   41 1   
    26   23   24 1   
    27   23   30 1   
    28   23   31 1   
    29   24   25 1   
    30   24   32 1   
    31   24   33 1   
    32   25   26 1   
    33   25   34 1   
    34   25   35 1   
    35   26   27 1   
    36   26   36 1   
    37   26   37 1   
    38   27   38 1   
    39   27   39 1   
    40   27   40 1   
    41   41   42 1   
    42   41   49 1   
    43   42   43 1   
    44   42   45 1   
    45   42   50 1   
    46   43   44 2   
    47   43   53 1   
    48   45   46 1   
    49   45   51 1   
    50   45   52 1   
    51   46   47 1   
    52   46   48 1   
    53   53   54 1   
    54   53   57 1   
    55   54   55 1   
    56   54   58 1   
    57   54   59 1   
    58   55   56 2   
    59   55   60 1   
    60   60   61 1   
    61   60   68 1   
    62   61   62 1   
    63   61   64 1   
    64   61   69 1   
    65   62   63 2   
    66   62   74 1   
    67   64   65 1   
    68   64   70 1   
    69   64   71 1   
    70   65   66 1   
    71   65   67 2   
    72   66   72 1   
    73   66   73 1   
    74   74   75 1   
    75   74   78 1   
    76   75   76 1   
    77   75   79 1   
    78   75   80 1   
    79   76   77 2   
    80   76   81 1   
    81   81   82 1   
    82   81   93 1   
    83   82   83 1   
    84   82   85 1   
    85   82   94 1   
    86   83   84 2   
    87   83  102 1   
    88   85   86 1   
    89   85   95 1   
    90   85   96 1   
    91   86   87 ar  
    92   86   88 ar  
    93   87   89 ar  
    94   87   97 1   
    95   88   90 ar  
    96   88   98 1   
    97   89   91 ar  
    98   89   99 1   
    99   90   91 ar  
   100   90  100 1   
   101   91   92 1   
   102   92  101 1   
   103  102  103 1   
   104  102  110 1   
   105  103  104 1   
   106  103  106 1   
   107  103  111 1   
   108  104  105 2   
   109  104  121 1   
   110  106  107 1   
   111  106  108 1   
   112  106  112 1   
   113  107  109 1   
   114  107  113 1   
   115  107  114 1   
   116  108  115 1   
   117  108  116 1   
   118  108  117 1   
   119  109  118 1   
   120  109  119 1   
   121  109  120 1   
   122  121  122 1   
   123  121  127 1   
   124  122  123 1   
   125  122  125 1   
   126  122  128 1   
   127  123  124 2   
   128  123  132 1   
   129  125  126 1   
   130  125  129 1   
   131  125  130 1   
   132  126  131 1   
   133  132  133 1   
   134  132  137 1   
   135  133  134 1   
   136  133  136 1   
   137  133  138 1   
   138  134  135 2   
   139  134  142 1   
   140  136  139 1   
   141  136  140 1   
   142  136  141 1   
   143  142  143 1   
   144  142  147 1   
   145  143  144 1   
   146  143  146 1   
   147  143  148 1   
   148  144  145 2   
   149  144  152 1   
   150  146  149 1   
   151  146  150 1   
   152  146  151 1   
   153  152  153 1   
   154  152  161 1   
   155  153  154 1   
   156  153  156 1   
   157  153  162 1   
   158  154  155 2   
   159  154  167 1   
   160  156  157 1   
   161  156  163 1   
   162  156  164 1   
   163  157  158 1   
   164  157  165 1   
   165  157  166 1   
   166  158  159 1   
   167  158  160 1   
   168  167  168 1   
   169  167  172 1   
   170  168  169 1   
   171  168  170 1   
   172  168  171 1   
   173  174  175 1   
   174  174  176 1   
   175  177  178 1   
   176  177  179 1   
@<TRIPOS>SUBSTRUCTURE
     1 MOL         1 TEMP              0 ****  ****    0 ROOT
