@<TRIPOS>MOLECULE
MOL
  189   185     1     0     0
SMALL
resp


@<TRIPOS>ATOM
      1 C1          0.3600   -4.4870    5.9030 c3        1 MOL     -0.413676
      2 C2          1.0470   -3.9720    4.6680 c         1 MOL      0.833089
      3 O1          1.1210   -2.7200    4.5390 o         1 MOL     -0.656216
      4 H1         -0.1130   -3.6580    6.4280 hc        1 MOL      0.102464
      5 H2         -0.3990   -5.2170    5.6190 hc        1 MOL      0.102464
      6 H3          1.0930   -4.9600    6.5560 hc        1 MOL      0.102464
      7 N1          1.5300   -4.7830    3.7470 n         1 MOL     -0.787307
      8 C3          2.0240   -4.2580    2.4390 c3        1 MOL      0.510923
      9 C4          1.6590   -5.2130    1.3210 c         1 MOL      0.397837
     10 O2          1.7810   -6.4360    1.4510 o         1 MOL     -0.558025
     11 C5          3.5650   -4.0000    2.5510 c3        1 MOL     -0.234670
     12 C6          4.1860   -3.2350    1.3650 c         1 MOL      0.677258
     13 O3          5.4190   -3.3840    1.2180 o         1 MOL     -0.662239
     14 O4          3.4590   -2.6630    0.5370 o         1 MOL     -0.662239
     15 H4          1.4270   -5.7690    3.9060 hn        1 MOL      0.340672
     16 H5          1.5270   -3.3200    2.1790 h1        1 MOL     -0.045571
     17 H6          4.0780   -4.9590    2.5370 hc        1 MOL      0.048232
     18 H7          3.8220   -3.4550    3.4630 hc        1 MOL      0.048232
     19 N2          1.3570   -4.6400    0.0940 n         1 MOL     -0.178162
     20 C7          1.1760   -5.4770   -1.1210 c3        1 MOL     -0.054925
     21 C8          2.4160   -5.4330   -1.9830 c         1 MOL      0.675954
     22 O5          2.8880   -6.4410   -2.5280 o         1 MOL     -0.612532
     23 C9         -0.1470   -5.0740   -1.8960 c3        1 MOL      0.140562
     24 C10        -1.3530   -5.2350   -0.9010 c3        1 MOL     -0.019528
     25 C11        -0.3360   -5.8340   -3.2010 c3        1 MOL     -0.166875
     26 C12        -2.7740   -5.0310   -1.5350 c3        1 MOL     -0.210387
     27 H8          1.4520   -3.6370    0.0790 hn        1 MOL     -0.053104
     28 H9          1.0250   -6.5430   -0.9680 h1        1 MOL      0.049653
     29 H10        -0.0050   -4.0120   -2.1110 hc        1 MOL      0.018925
     30 H11        -1.2570   -4.5130   -0.0900 hc        1 MOL      0.016156
     31 H12        -1.3650   -6.1760   -0.3590 hc        1 MOL      0.016156
     32 H13         0.3820   -5.6350   -4.0040 hc        1 MOL      0.029803
     33 H14        -0.3500   -6.9030   -3.0110 hc        1 MOL      0.029803
     34 H15        -1.3060   -5.5690   -3.6200 hc        1 MOL      0.029803
     35 H16        -2.8450   -4.0550   -2.0040 hc        1 MOL      0.058636
     36 H17        -3.0170   -5.7720   -2.2980 hc        1 MOL      0.058636
     37 H18        -3.4910   -5.0770   -0.7160 hc        1 MOL      0.058636
     38 N3          3.0510   -4.2330   -2.1320 n         1 MOL     -0.484122
     39 C13         3.8830   -3.8060   -3.2990 c3        1 MOL      0.107841
     40 C14         5.2890   -3.1800   -2.9650 c         1 MOL      0.388526
     41 O6          6.2010   -3.2780   -3.7030 o         1 MOL     -0.542947
     42 C15         3.0680   -2.7500   -4.1260 c3        1 MOL     -0.387200
     43 C16         2.6240   -1.4310   -3.4270 c         1 MOL      0.792660
     44 O7          3.0080   -1.0950   -2.2910 o         1 MOL     -0.709485
     45 O8          1.6680   -0.8350   -3.9940 o         1 MOL     -0.709485
     46 H19         2.6040   -3.4810   -1.6260 hn        1 MOL      0.381543
     47 H20         4.0740   -4.6240   -3.9900 h1        1 MOL      0.077480
     48 H21         2.1780   -3.2880   -4.4460 hc        1 MOL      0.099198
     49 H22         3.6960   -2.4210   -4.9600 hc        1 MOL      0.099198
     50 N4          5.4790   -2.6110   -1.7490 n         1 MOL     -0.045885
     51 C17         6.8170   -2.0690   -1.3100 c3        1 MOL     -0.219665
     52 C18         7.2500   -0.6940   -1.8400 c         1 MOL      0.545222
     53 O9          8.4020   -0.3980   -1.9570 o         1 MOL     -0.598217
     54 H23         4.7210   -2.6590   -1.0800 hn        1 MOL      0.050275
     55 H24         7.6270   -2.7080   -1.6450 h1        1 MOL      0.098439
     56 H25         6.8200   -1.9450   -0.2330 h1        1 MOL      0.098439
     57 N5          6.2420    0.1420   -2.0760 n         1 MOL     -0.216149
     58 C19         6.4740    1.5710   -2.4400 c3        1 MOL      0.026129
     59 C20         6.8340    2.5000   -1.2210 c         1 MOL      0.451646
     60 O10         7.3420    3.5830   -1.3600 o         1 MOL     -0.566277
     61 C21         5.1610    2.0960   -3.1610 c3        1 MOL     -0.195001
     62 C22         3.9690    2.2100   -2.2420 c         1 MOL      0.815663
     63 O11         3.9140    1.8000   -1.0510 o         1 MOL     -0.718660
     64 O12         3.0250    2.8510   -2.7690 o         1 MOL     -0.718660
     65 H26         5.2890   -0.1860   -2.0390 hn        1 MOL      0.138933
     66 H27         7.2490    1.6770   -3.1990 h1        1 MOL      0.067959
     67 H28         4.9920    1.2830   -3.8610 hc        1 MOL      0.041256
     68 H29         5.3680    3.0580   -3.6290 hc        1 MOL      0.041256
     69 N6          6.6610    1.9330   -0.0400 n         1 MOL     -0.260592
     70 C23         6.9870    2.6180    1.2570 c3        1 MOL     -0.076865
     71 C24         5.9370    3.6320    1.7570 c         1 MOL      0.480381
     72 O13         6.1440    4.2890    2.7660 o         1 MOL     -0.569230
     73 H30         6.4030    0.9630   -0.0830 hn        1 MOL      0.213213
     74 H31         7.9560    3.1170    1.1660 h1        1 MOL      0.074000
     75 H32         7.2880    1.9990    2.1030 h1        1 MOL      0.074000
     76 N7          4.8000    3.7340    0.9860 n         1 MOL     -0.355919
     77 C25         3.5410    4.3210    1.4650 c3        1 MOL      0.226083
     78 C26         2.4150    3.2880    1.6590 c         1 MOL      0.597749
     79 O14         2.4230    2.2030    1.1370 o         1 MOL     -0.651615
     80 C27         3.0670    5.5130    0.5830 c3        1 MOL     -0.018667
     81 C28         4.1220    6.5820    0.4220 c3        1 MOL     -0.075313
     82 C29         3.6870    7.7090   -0.4650 c         1 MOL      0.666160
     83 N8          4.5060    8.5810   -0.9540 n         1 MOL     -0.781085
     84 O15         2.5390    7.8880   -0.8000 o         1 MOL     -0.579649
     85 H33         4.7510    3.1490    0.1580 hn        1 MOL      0.246706
     86 H34         3.6660    4.7110    2.4730 h1        1 MOL     -0.029599
     87 H35         2.2170    5.9690    1.0900 hc        1 MOL      0.021903
     88 H36         2.7310    5.1340   -0.3790 hc        1 MOL      0.021903
     89 H37         5.0780    6.1540    0.1260 hc        1 MOL      0.018528
     90 H38         4.3420    7.0110    1.3970 hc        1 MOL      0.018528
     91 H39         5.4780    8.6620   -0.6940 hn        1 MOL      0.340386
     92 H40         4.0390    9.2640   -1.5290 hn        1 MOL      0.340386
     93 N9          1.4180    3.6590    2.4410 n         1 MOL     -0.590473
     94 C30         0.1580    2.8590    2.6140 c3        1 MOL      0.075980
     95 C31        -0.9280    3.2290    1.5730 c         1 MOL      0.525615
     96 O16        -1.2840    4.3900    1.5270 o         1 MOL     -0.588338
     97 C32        -0.3550    2.7670    4.0870 c3        1 MOL      0.156258
     98 C33        -1.5560    1.8910    4.1590 c3        1 MOL     -0.287213
     99 C34         0.8180    2.1400    4.9390 c3        1 MOL     -0.287213
    100 H41         1.5140    4.6080    2.8000 hn        1 MOL      0.305209
    101 H42         0.3990    1.8130    2.3970 h1        1 MOL      0.186628
    102 H43        -0.6930    3.7380    4.4470 hc        1 MOL     -0.017564
    103 H44        -1.2320    0.9180    3.8030 hc        1 MOL      0.060566
    104 H45        -2.0680    1.8290    5.1200 hc        1 MOL      0.060566
    105 H46        -2.3280    2.1670    3.4420 hc        1 MOL      0.060566
    106 H47         1.8330    2.4930    4.7940 hc        1 MOL      0.060566
    107 H48         0.5800    2.2090    6.0030 hc        1 MOL      0.060566
    108 H49         0.9530    1.0910    4.6850 hc        1 MOL      0.060566
    109 N10        -1.3820    2.2880    0.7310 n         1 MOL     -0.198105
    110 C35        -2.4970    2.4990   -0.1870 c3        1 MOL      0.221030
    111 C36        -3.8000    2.3590    0.6070 c         1 MOL      0.104672
    112 O17        -3.7470    1.7030    1.6350 o         1 MOL     -0.158136
    113 C37        -2.2850    1.5160   -1.3860 c3        1 MOL     -0.346086
    114 C38        -3.4430    1.4650   -2.3530 c         1 MOL      0.677855
    115 N11        -3.8880    2.5580   -2.9210 n         1 MOL     -0.755766
    116 O18        -4.1130    0.4490   -2.4330 o         1 MOL     -0.518180
    117 H50        -1.0600    1.3480    0.8720 hn        1 MOL      0.001955
    118 H51        -2.4540    3.5240   -0.5670 h1        1 MOL      0.006343
    119 H52        -2.1040    0.5410   -0.9460 hc        1 MOL      0.120868
    120 H53        -1.3430    1.7870   -1.8730 hc        1 MOL      0.120868
    121 H54        -3.3300    3.3730   -2.6960 hn        1 MOL      0.351519
    122 H55        -4.7260    2.6240   -3.4660 hn        1 MOL      0.351519
    123 N12        -4.9480    2.7440    0.0460 n         1 MOL     -0.105703
    124 C39        -6.1940    2.5980    0.7450 c3        1 MOL      0.026279
    125 C40        -6.5980    1.0880    1.0560 c         1 MOL      0.372708
    126 O19        -7.1190    0.7840    2.1310 o         1 MOL     -0.527663
    127 C41        -7.2570    3.4150    0.0340 c3        1 MOL     -0.038225
    128 C42        -7.4990    3.2530   -1.4510 ca        1 MOL      0.020784
    129 C43        -6.7400    3.9270   -2.4610 ca        1 MOL     -0.225577
    130 C44        -8.3830    2.2030   -1.8150 ca        1 MOL     -0.225577
    131 C45        -6.9610    3.6160   -3.8230 ca        1 MOL     -0.179931
    132 C46        -8.5780    1.9270   -3.1710 ca        1 MOL     -0.179931
    133 C47        -7.9530    2.6520   -4.1790 ca        1 MOL      0.314765
    134 O20        -8.1650    2.3990   -5.4730 oh        1 MOL     -0.531766
    135 H56        -4.9810    3.0180   -0.9270 hn        1 MOL      0.042847
    136 H57        -6.0950    3.0060    1.7540 h1        1 MOL      0.044172
    137 H58        -7.0070    4.4790    0.1050 hc        1 MOL      0.030287
    138 H59        -8.1790    3.3030    0.6070 hc        1 MOL      0.030287
    139 H60        -6.0260    4.6890   -2.1870 ha        1 MOL      0.165470
    140 H61        -8.8560    1.5630   -1.0950 ha        1 MOL      0.165470
    141 H62        -6.3540    4.1640   -4.5230 ha        1 MOL      0.111643
    142 H63        -9.1900    1.0770   -3.4250 ha        1 MOL      0.111643
    143 H64        -8.8860    1.7750   -5.6390 ho        1 MOL      0.410502
    144 N13        -6.2810    0.2060    0.1130 n         1 MOL     -0.041161
    145 C48        -6.4620   -1.2560    0.1830 c3        1 MOL     -0.425085
    146 C49        -5.5910   -1.9920    1.2470 c         1 MOL      0.507084
    147 O21        -5.8480   -3.0300    1.8110 o         1 MOL     -0.525207
    148 C50        -6.0960   -1.8970   -1.1930 c3        1 MOL      0.289062
    149 C51        -7.1600   -1.5740   -2.3160 c3        1 MOL     -0.181862
    150 C52        -8.4840   -2.3380   -2.1380 c         1 MOL      0.703456
    151 O22        -9.5030   -1.8820   -2.6710 o         1 MOL     -0.731145
    152 O23        -8.5280   -3.2740   -1.3340 o         1 MOL     -0.731145
    153 H65        -5.9360    0.5280   -0.7820 hn        1 MOL      0.309085
    154 H66        -7.5050   -1.4750    0.4170 h1        1 MOL      0.209933
    155 H67        -5.9660   -2.9750   -1.1330 hc        1 MOL     -0.042798
    156 H68        -5.1750   -1.4360   -1.5600 hc        1 MOL     -0.042798
    157 H69        -6.7860   -1.9760   -3.2500 hc        1 MOL     -0.005852
    158 H70        -7.2890   -0.5070   -2.4860 hc        1 MOL     -0.005852
    159 N14        -4.5580   -1.2720    1.6560 n         1 MOL     -0.169412
    160 C53        -3.6240   -1.7280    2.6860 c3        1 MOL      0.065648
    161 C54        -4.0520   -1.1650    4.0310 c         1 MOL      0.423407
    162 O24        -4.0760   -1.8430    5.0090 o         1 MOL     -0.563979
    163 C55        -2.1750   -1.3270    2.2840 c3        1 MOL      0.009816
    164 C56        -1.4980   -2.0330    1.0780 c3        1 MOL      0.086701
    165 C57        -0.2260   -1.3070    0.6370 c         1 MOL      0.719313
    166 O25         0.5600   -1.8230   -0.1660 o         1 MOL     -0.691600
    167 O26         0.1890   -0.2040    1.0590 o         1 MOL     -0.691600
    168 H71        -4.5010   -0.3120    1.3680 hn        1 MOL     -0.046796
    169 H72        -3.5290   -2.7980    2.8100 h1        1 MOL      0.050953
    170 H73        -1.6230   -1.4450    3.2130 hc        1 MOL     -0.004053
    171 H74        -2.1720   -0.2840    1.9590 hc        1 MOL     -0.004053
    172 H75        -2.1320   -2.2210    0.2060 hc        1 MOL     -0.020868
    173 H76        -1.1990   -3.0080    1.4610 hc        1 MOL     -0.020868
    174 N15        -4.4490    0.1090    4.0400 n         1 MOL      0.005558
    175 C58        -4.8970    0.8620    5.2410 c3        1 MOL     -0.215358
    176 H77        -4.4430    1.8530    5.2370 h1        1 MOL      0.075683
    177 H78        -5.9820    0.9600    5.2250 h1        1 MOL      0.075683
    178 H79        -4.5930    0.3270    6.1410 h1        1 MOL      0.075683
    179 H80        -4.4780    0.6170    3.1710 hn        1 MOL      0.058533
    180 Ca1         2.5490   -0.2390    0.0850 Ca        1 MOL      1.757496
    181 O27         2.5750   -0.5140    2.8060 oh        1 MOL     -0.834886
    182 H81         3.0380   -0.1170    3.5380 ho        1 MOL      0.400955
    183 H82         1.8730   -1.0220    3.2090 ho        1 MOL      0.400955
    184 O28         5.2670   -0.4580    0.8300 oh        1 MOL     -0.834886
    185 H83         5.4080   -0.0830    1.7040 ho        1 MOL      0.400955
    186 H84         5.2920   -1.4040    0.9650 ho        1 MOL      0.400955
    187 O29         1.1690    1.0300   -2.1430 oh        1 MOL     -0.834886
    188 H85         1.2650    0.3260   -2.7870 ho        1 MOL      0.400955
    189 H86         1.6180    1.7740   -2.5400 ho        1 MOL      0.400955
@<TRIPOS>BOND
     1    1    2 1   
     2    1    4 1   
     3    1    5 1   
     4    1    6 1   
     5    2    3 2   
     6    2    7 1   
     7    7    8 1   
     8    7   15 1   
     9    8    9 1   
    10    8   11 1   
    11    8   16 1   
    12    9   10 2   
    13    9   19 1   
    14   11   12 1   
    15   11   17 1   
    16   11   18 1   
    17   12   13 1   
    18   12   14 1   
    19   19   20 1   
    20   19   27 1   
    21   20   21 1   
    22   20   23 1   
    23   20   28 1   
    24   21   22 2   
    25   21   38 1   
    26   23   24 1   
    27   23   25 1   
    28   23   29 1   
    29   24   26 1   
    30   24   30 1   
    31   24   31 1   
    32   25   32 1   
    33   25   33 1   
    34   25   34 1   
    35   26   35 1   
    36   26   36 1   
    37   26   37 1   
    38   38   39 1   
    39   38   46 1   
    40   39   40 1   
    41   39   42 1   
    42   39   47 1   
    43   40   41 2   
    44   40   50 1   
    45   42   43 1   
    46   42   48 1   
    47   42   49 1   
    48   43   44 1   
    49   43   45 1   
    50   50   51 1   
    51   50   54 1   
    52   51   52 1   
    53   51   55 1   
    54   51   56 1   
    55   52   53 2   
    56   52   57 1   
    57   57   58 1   
    58   57   65 1   
    59   58   59 1   
    60   58   61 1   
    61   58   66 1   
    62   59   60 2   
    63   59   69 1   
    64   61   62 1   
    65   61   67 1   
    66   61   68 1   
    67   62   63 1   
    68   62   64 1   
    69   69   70 1   
    70   69   73 1   
    71   70   71 1   
    72   70   74 1   
    73   70   75 1   
    74   71   72 2   
    75   71   76 1   
    76   76   77 1   
    77   76   85 1   
    78   77   78 1   
    79   77   80 1   
    80   77   86 1   
    81   78   79 2   
    82   78   93 1   
    83   80   81 1   
    84   80   87 1   
    85   80   88 1   
    86   81   82 1   
    87   81   89 1   
    88   81   90 1   
    89   82   83 1   
    90   82   84 2   
    91   83   91 1   
    92   83   92 1   
    93   93   94 1   
    94   93  100 1   
    95   94   95 1   
    96   94   97 1   
    97   94  101 1   
    98   95   96 2   
    99   95  109 1   
   100   97   98 1   
   101   97   99 1   
   102   97  102 1   
   103   98  103 1   
   104   98  104 1   
   105   98  105 1   
   106   99  106 1   
   107   99  107 1   
   108   99  108 1   
   109  109  110 1   
   110  109  117 1   
   111  110  111 1   
   112  110  113 1   
   113  110  118 1   
   114  111  112 2   
   115  111  123 1   
   116  113  114 1   
   117  113  119 1   
   118  113  120 1   
   119  114  115 1   
   120  114  116 2   
   121  115  121 1   
   122  115  122 1   
   123  123  124 1   
   124  123  135 1   
   125  124  125 1   
   126  124  127 1   
   127  124  136 1   
   128  125  126 2   
   129  125  144 1   
   130  127  128 1   
   131  127  137 1   
   132  127  138 1   
   133  128  129 ar  
   134  128  130 ar  
   135  129  131 ar  
   136  129  139 1   
   137  130  132 ar  
   138  130  140 1   
   139  131  133 ar  
   140  131  141 1   
   141  132  133 ar  
   142  132  142 1   
   143  133  134 1   
   144  134  143 1   
   145  144  145 1   
   146  144  153 1   
   147  145  146 1   
   148  145  148 1   
   149  145  154 1   
   150  146  147 2   
   151  146  159 1   
   152  148  149 1   
   153  148  155 1   
   154  148  156 1   
   155  149  150 1   
   156  149  157 1   
   157  149  158 1   
   158  150  151 1   
   159  150  152 1   
   160  159  160 1   
   161  159  168 1   
   162  160  161 1   
   163  160  163 1   
   164  160  169 1   
   165  161  162 2   
   166  161  174 1   
   167  163  164 1   
   168  163  170 1   
   169  163  171 1   
   170  164  165 1   
   171  164  172 1   
   172  164  173 1   
   173  165  166 1   
   174  165  167 1   
   175  174  175 1   
   176  174  179 1   
   177  175  176 1   
   178  175  177 1   
   179  175  178 1   
   180  181  182 1   
   181  181  183 1   
   182  184  185 1   
   183  184  186 1   
   184  187  188 1   
   185  187  189 1   
@<TRIPOS>SUBSTRUCTURE
     1 MOL         1 TEMP              0 ****  ****    0 ROOT
