@<TRIPOS>MOLECULE
MOL
  172   171     1     0     0
SMALL
resp


@<TRIPOS>ATOM
      1 C1          0.1680    3.8380    5.3120 c3        1 MOL     -0.404867
      2 C2         -0.4180    3.5980    4.0180 c         1 MOL      0.765613
      3 O1          0.1250    4.0640    2.9820 o         1 MOL     -0.581494
      4 H1          0.4600    2.8880    5.7610 hc        1 MOL      0.097089
      5 H2          1.0470    4.4720    5.2020 hc        1 MOL      0.097089
      6 H3         -0.5600    4.3330    5.9550 hc        1 MOL      0.097089
      7 N1         -1.5810    2.8660    3.9980 n         1 MOL     -0.691878
      8 C3         -2.1850    2.3780    2.7410 c3        1 MOL      0.351584
      9 C4         -2.6120    3.6760    1.9880 c         1 MOL      0.452441
     10 O2         -3.5400    4.3950    2.4740 o         1 MOL     -0.614916
     11 C5         -3.2850    1.3890    3.0680 c3        1 MOL     -0.197700
     12 C6         -3.9050    0.7960    1.7840 c         1 MOL      0.796743
     13 O3         -3.3020    0.8890    0.6620 o         1 MOL     -0.737360
     14 O4         -5.0040    0.2700    1.8200 o         1 MOL     -0.737360
     15 H4         -2.0510    2.5260    4.8240 hn        1 MOL      0.320272
     16 H5         -1.4110    1.9150    2.1270 h1        1 MOL     -0.043756
     17 H6         -4.0180    1.9050    3.6980 hc        1 MOL      0.032395
     18 H7         -2.7780    0.5950    3.6060 hc        1 MOL      0.032395
     19 N2         -1.9810    3.9370    0.8450 n         1 MOL     -0.246298
     20 C7         -2.1590    5.2180    0.1260 c3        1 MOL      0.322131
     21 C8         -3.2160    5.1840   -0.9110 c         1 MOL      0.228283
     22 O5         -3.6340    6.2270   -1.4950 o         1 MOL     -0.559368
     23 C9         -0.7700    5.6100   -0.4090 c3        1 MOL     -0.281709
     24 H8         -1.4530    3.1890    0.4290 hn        1 MOL      0.220219
     25 H9         -2.3320    6.0210    0.8390 h1        1 MOL      0.003727
     26 H10        -0.4340    4.8630   -1.1170 hc        1 MOL      0.069319
     27 H11        -0.8720    6.5790   -0.8970 hc        1 MOL      0.069319
     28 H12        -0.1080    5.6340    0.4650 hc        1 MOL      0.069319
     29 N3         -3.6600    4.0020   -1.2440 n         1 MOL     -0.045353
     30 C10        -4.6430    3.7210   -2.4210 c3        1 MOL     -0.117081
     31 C11        -5.8770    2.8700   -1.9820 c         1 MOL      0.368111
     32 O6         -6.8370    2.6010   -2.7390 o         1 MOL     -0.527614
     33 C12        -3.8370    3.3380   -3.6460 c3        1 MOL      0.047402
     34 C13        -2.9740    2.1300   -3.4190 c         1 MOL      0.637823
     35 O7         -3.3330    1.2320   -2.5650 o         1 MOL     -0.695457
     36 O8         -1.9540    2.0010   -4.1390 o         1 MOL     -0.695457
     37 H13        -3.2790    3.1930   -0.7740 hn        1 MOL      0.106024
     38 H14        -5.0970    4.6760   -2.6860 h1        1 MOL      0.101849
     39 H15        -3.2300    4.2000   -3.9080 hc        1 MOL      0.006394
     40 H16        -4.4250    3.1310   -4.5410 hc        1 MOL      0.006394
     41 N4         -5.9800    2.6610   -0.6330 n         1 MOL     -0.074912
     42 C14        -7.2710    2.3470    0.1040 c3        1 MOL     -0.164371
     43 C15        -7.7140    0.9130   -0.2630 c         1 MOL      0.547222
     44 O9         -8.9120    0.6720   -0.1790 o         1 MOL     -0.595420
     45 H17        -5.2170    3.0870   -0.1200 hn        1 MOL      0.100962
     46 H18        -7.9890    3.1230   -0.1540 h1        1 MOL      0.096853
     47 H19        -7.0300    2.4650    1.1540 h1        1 MOL      0.096853
     48 N5         -6.8100    0.0430   -0.7560 n         1 MOL     -0.236040
     49 C16        -7.2230   -1.2990   -1.2550 c3        1 MOL     -0.073307
     50 C17        -6.9740   -2.4400   -0.2320 c         1 MOL      0.420360
     51 O10        -7.2190   -3.6420   -0.4860 o         1 MOL     -0.573698
     52 C18        -6.5420   -1.5300   -2.6260 c3        1 MOL     -0.099937
     53 C19        -5.0240   -1.7390   -2.5360 c         1 MOL      0.546903
     54 N6         -4.3450   -2.2490   -3.5590 n         1 MOL     -0.682479
     55 O11        -4.4040   -1.3650   -1.5770 o         1 MOL     -0.567050
     56 H20        -5.8580    0.3640   -0.8780 hn        1 MOL      0.229154
     57 H21        -8.2980   -1.2760   -1.4590 h1        1 MOL      0.121786
     58 H22        -6.7280   -0.6660   -3.2630 hc        1 MOL      0.053616
     59 H23        -7.0270   -2.3510   -3.1520 hc        1 MOL      0.053616
     60 H24        -4.8720   -2.5190   -4.3710 hn        1 MOL      0.321237
     61 H25        -3.3510   -2.4140   -3.4830 hn        1 MOL      0.321237
     62 N7         -6.4780   -2.1280    0.9580 n         1 MOL     -0.158019
     63 C20        -6.2950   -2.9660    2.1020 c3        1 MOL     -0.150506
     64 C21        -5.0230   -3.8330    2.1360 c         1 MOL      0.498924
     65 O12        -4.7420   -4.5170    3.1480 o         1 MOL     -0.598174
     66 H26        -6.1320   -1.1750    1.0220 hn        1 MOL      0.180827
     67 H27        -7.1860   -3.5540    2.2880 h1        1 MOL      0.104920
     68 H28        -6.3170   -2.3000    2.9690 h1        1 MOL      0.104920
     69 N8         -4.0930   -3.8150    1.1820 n         1 MOL     -0.236037
     70 C22        -2.8150   -4.4970    1.2270 c3        1 MOL      0.050462
     71 C23        -1.7350   -3.4040    1.1530 c         1 MOL      0.721069
     72 O13        -1.9700   -2.2400    0.7600 o         1 MOL     -0.668702
     73 C24        -2.6830   -5.6930    0.2010 c3        1 MOL      0.257746
     74 C25        -3.7060   -6.7550    0.5610 c3        1 MOL     -0.342709
     75 O14        -2.8670   -5.1200   -1.0880 oh        1 MOL     -0.603096
     76 H29        -4.2290   -3.2600    0.3390 hn        1 MOL      0.264179
     77 H30        -2.5480   -4.8800    2.2160 h1        1 MOL      0.050899
     78 H31        -1.6730   -6.1180    0.2580 h1        1 MOL      0.008863
     79 H32        -2.9670   -5.8710   -1.6770 ho        1 MOL      0.403582
     80 H33        -4.7160   -6.4650    0.2570 hc        1 MOL      0.091459
     81 H34        -3.4380   -7.6270   -0.0270 hc        1 MOL      0.091459
     82 H35        -3.5550   -6.9910    1.6150 hc        1 MOL      0.091459
     83 N9         -0.5000   -3.8010    1.5340 n         1 MOL     -0.660476
     84 C26         0.7080   -2.9840    1.4380 c3        1 MOL      0.061477
     85 C27         1.5870   -3.3330    0.2030 c         1 MOL      0.617383
     86 O15         1.8360   -4.4860   -0.0960 o         1 MOL     -0.564346
     87 C28         1.4310   -2.9340    2.8210 c3        1 MOL      0.027426
     88 C29         0.5630   -2.0330    3.7770 c3        1 MOL      0.119256
     89 C30         2.8830   -2.2930    2.8530 c3        1 MOL     -0.180783
     90 C31         0.8220   -2.1230    5.2900 c3        1 MOL     -0.171831
     91 H36        -0.4450   -4.7650    1.8320 hn        1 MOL      0.301865
     92 H37         0.2680   -1.9930    1.3520 h1        1 MOL      0.079878
     93 H38         1.4680   -3.8770    3.3680 hc        1 MOL      0.013828
     94 H39        -0.4980   -2.2800    3.7580 hc        1 MOL      0.010884
     95 H40         0.6550   -1.0050    3.4270 hc        1 MOL      0.010884
     96 H41         2.7560   -1.2630    2.5090 hc        1 MOL      0.032329
     97 H42         3.4420   -2.3410    3.7860 hc        1 MOL      0.032329
     98 H43         3.4570   -2.8070    2.0740 hc        1 MOL      0.032329
     99 H44         1.8820   -2.0570    5.5250 hc        1 MOL      0.028808
    100 H45         0.3530   -1.3930    5.9430 hc        1 MOL      0.028808
    101 H46         0.4990   -3.1250    5.5610 hc        1 MOL      0.028808
    102 N10         2.1080   -2.2420   -0.4090 n         1 MOL     -0.520017
    103 C32         3.0260   -2.1520   -1.6300 c3        1 MOL      0.168921
    104 C33         4.3710   -1.5060   -1.1890 c         1 MOL      0.484835
    105 O16         4.4000   -0.8960   -0.1360 o         1 MOL     -0.333048
    106 C34         2.4300   -1.2480   -2.7360 c3        1 MOL     -0.352157
    107 C35         0.9630   -1.5530   -3.0080 c         1 MOL      0.910524
    108 O17         0.1280   -0.7270   -2.6240 o         1 MOL     -0.750106
    109 O18         0.6390   -2.5360   -3.6920 o         1 MOL     -0.750106
    110 H47         1.9350   -1.3380   -0.0010 hn        1 MOL      0.242082
    111 H48         3.1460   -3.1600   -2.0450 h1        1 MOL      0.044707
    112 H49         3.0360   -1.2850   -3.6390 hc        1 MOL      0.078087
    113 H50         2.6020   -0.2240   -2.3970 hc        1 MOL      0.078087
    114 N11         5.4170   -1.7950   -1.9540 n         1 MOL     -0.700348
    115 C36         6.7760   -1.4220   -1.3950 c3        1 MOL      0.412321
    116 C37         6.9310    0.0200   -0.8050 c         1 MOL      0.319430
    117 O19         7.4430    0.1390    0.2780 o         1 MOL     -0.448473
    118 C38         7.9520   -1.6410   -2.3050 c3        1 MOL     -0.202889
    119 C39         9.3430   -1.3930   -1.6080 ca        1 MOL      0.283179
    120 C40         9.6620   -1.9910   -0.3860 ca        1 MOL     -0.300030
    121 C41        10.3340   -0.7260   -2.3170 ca        1 MOL     -0.300030
    122 C42        10.9390   -1.7550    0.1440 ca        1 MOL     -0.003734
    123 C43        11.5890   -0.4490   -1.7690 ca        1 MOL     -0.003734
    124 C44        11.9350   -0.9770   -0.5110 ca        1 MOL     -0.233685
    125 H51         5.4010   -2.3210   -2.8120 hn        1 MOL      0.361581
    126 H52         6.8730   -2.0730   -0.5170 h1        1 MOL      0.014574
    127 H53         7.9070   -0.8930   -3.1030 hc        1 MOL      0.038691
    128 H54         8.1010   -2.6500   -2.6950 hc        1 MOL      0.038691
    129 H55         8.9420   -2.6090    0.1330 ha        1 MOL      0.138725
    130 H56        10.0740   -0.2820   -3.2670 ha        1 MOL      0.138725
    131 H57        11.1370   -2.1650    1.1210 ha        1 MOL      0.087281
    132 H58        12.3040    0.0440   -2.4110 ha        1 MOL      0.087281
    133 H59        12.8850   -0.7660   -0.0500 ha        1 MOL      0.134665
    134 N12         6.4830    1.0720   -1.5620 n         1 MOL     -0.173154
    135 C45         6.5760    2.4400   -1.0530 c3        1 MOL     -0.020798
    136 C46         5.8560    2.7190    0.2780 c         1 MOL      0.371918
    137 O20         6.2490    3.5750    1.0460 o         1 MOL     -0.506977
    138 C47         5.9140    3.2910   -2.1580 c3        1 MOL     -0.086653
    139 C48         4.9540    2.3750   -2.9170 c3        1 MOL     -0.078373
    140 C49         5.8360    1.1000   -2.8880 c3        1 MOL     -0.002584
    141 H60         7.5990    2.7650   -0.8700 h1        1 MOL      0.076009
    142 H61         5.3730    4.1350   -1.7410 hc        1 MOL      0.047505
    143 H62         6.6630    3.7770   -2.7900 hc        1 MOL      0.047505
    144 H63         4.0670    2.3000   -2.2950 hc        1 MOL      0.066959
    145 H64         4.6750    2.5910   -3.9410 hc        1 MOL      0.066959
    146 H65         5.2370    0.2090   -3.0800 h1        1 MOL      0.034417
    147 H66         6.5520    1.0980   -3.7130 h1        1 MOL      0.034417
    148 N13         4.7890    1.9570    0.5150 n         1 MOL     -0.099059
    149 C50         4.0640    2.0570    1.7720 c3        1 MOL     -0.222990
    150 C51         4.8280    1.3410    2.9000 c         1 MOL      0.491300
    151 O21         4.9230    1.9250    3.9700 o         1 MOL     -0.550150
    152 C52         2.6340    1.5270    1.5410 c3        1 MOL      0.083007
    153 C53         1.8710    2.1290    0.4100 c3        1 MOL     -0.125881
    154 C54         0.4880    1.4380    0.2040 c         1 MOL      0.751172
    155 O22         0.2000    0.2830    0.5600 o         1 MOL     -0.750374
    156 O23        -0.3690    1.9940   -0.4930 o         1 MOL     -0.750374
    157 H67         4.6840    1.1230   -0.0340 hn        1 MOL      0.137475
    158 H68         4.0570    3.1380    1.9190 h1        1 MOL      0.140013
    159 H69         2.0680    1.5730    2.4680 hc        1 MOL      0.017046
    160 H70         2.7350    0.4610    1.3190 hc        1 MOL      0.017046
    161 H71         2.3490    2.0660   -0.5620 hc        1 MOL      0.035719
    162 H72         1.6910    3.1820    0.6500 hc        1 MOL      0.035719
    163 N14         5.4130    0.1760    2.6450 n         1 MOL     -0.066113
    164 C55         6.3690   -0.5330    3.5060 c3        1 MOL     -0.285856
    165 H73         5.8410   -0.9670    4.3540 h1        1 MOL      0.102958
    166 H74         6.8540   -1.3260    2.9350 h1        1 MOL      0.102958
    167 H75         7.1220    0.1670    3.8670 h1        1 MOL      0.102958
    168 H76         5.1440   -0.3270    1.8090 hn        1 MOL      0.115875
    169 Ca1        -1.8880   -0.2540   -1.0590 Ca        1 MOL      1.716351
    170 O24        -1.7800   -2.9030   -2.2710 oh        1 MOL     -0.770260
    171 H77        -1.0330   -3.1260   -2.8260 ho        1 MOL      0.376978
    172 H78        -2.0220   -3.7270   -1.8490 ho        1 MOL      0.376978
@<TRIPOS>BOND
     1    1    2 1   
     2    1    4 1   
     3    1    5 1   
     4    1    6 1   
     5    2    3 2   
     6    2    7 1   
     7    7    8 1   
     8    7   15 1   
     9    8    9 1   
    10    8   11 1   
    11    8   16 1   
    12    9   10 2   
    13    9   19 1   
    14   11   12 1   
    15   11   17 1   
    16   11   18 1   
    17   12   13 1   
    18   12   14 1   
    19   19   20 1   
    20   19   24 1   
    21   20   21 1   
    22   20   23 1   
    23   20   25 1   
    24   21   22 2   
    25   21   29 1   
    26   23   26 1   
    27   23   27 1   
    28   23   28 1   
    29   29   30 1   
    30   29   37 1   
    31   30   31 1   
    32   30   33 1   
    33   30   38 1   
    34   31   32 2   
    35   31   41 1   
    36   33   34 1   
    37   33   39 1   
    38   33   40 1   
    39   34   35 1   
    40   34   36 1   
    41   41   42 1   
    42   41   45 1   
    43   42   43 1   
    44   42   46 1   
    45   42   47 1   
    46   43   44 2   
    47   43   48 1   
    48   48   49 1   
    49   48   56 1   
    50   49   50 1   
    51   49   52 1   
    52   49   57 1   
    53   50   51 2   
    54   50   62 1   
    55   52   53 1   
    56   52   58 1   
    57   52   59 1   
    58   53   54 1   
    59   53   55 2   
    60   54   60 1   
    61   54   61 1   
    62   62   63 1   
    63   62   66 1   
    64   63   64 1   
    65   63   67 1   
    66   63   68 1   
    67   64   65 2   
    68   64   69 1   
    69   69   70 1   
    70   69   76 1   
    71   70   71 1   
    72   70   73 1   
    73   70   77 1   
    74   71   72 2   
    75   71   83 1   
    76   73   74 1   
    77   73   75 1   
    78   73   78 1   
    79   74   80 1   
    80   74   81 1   
    81   74   82 1   
    82   75   79 1   
    83   83   84 1   
    84   83   91 1   
    85   84   85 1   
    86   84   87 1   
    87   84   92 1   
    88   85   86 2   
    89   85  102 1   
    90   87   88 1   
    91   87   89 1   
    92   87   93 1   
    93   88   90 1   
    94   88   94 1   
    95   88   95 1   
    96   89   96 1   
    97   89   97 1   
    98   89   98 1   
    99   90   99 1   
   100   90  100 1   
   101   90  101 1   
   102  102  103 1   
   103  102  110 1   
   104  103  104 1   
   105  103  106 1   
   106  103  111 1   
   107  104  105 2   
   108  104  114 1   
   109  106  107 1   
   110  106  112 1   
   111  106  113 1   
   112  107  108 1   
   113  107  109 1   
   114  114  115 1   
   115  114  125 1   
   116  115  116 1   
   117  115  118 1   
   118  115  126 1   
   119  116  117 2   
   120  116  134 1   
   121  118  119 1   
   122  118  127 1   
   123  118  128 1   
   124  119  120 ar  
   125  119  121 ar  
   126  120  122 ar  
   127  120  129 1   
   128  121  123 ar  
   129  121  130 1   
   130  122  124 ar  
   131  122  131 1   
   132  123  124 ar  
   133  123  132 1   
   134  124  133 1   
   135  134  135 1   
   136  134  140 1   
   137  135  136 1   
   138  135  138 1   
   139  135  141 1   
   140  136  137 2   
   141  136  148 1   
   142  138  139 1   
   143  138  142 1   
   144  138  143 1   
   145  139  140 1   
   146  139  144 1   
   147  139  145 1   
   148  140  146 1   
   149  140  147 1   
   150  148  149 1   
   151  148  157 1   
   152  149  150 1   
   153  149  152 1   
   154  149  158 1   
   155  150  151 2   
   156  150  163 1   
   157  152  153 1   
   158  152  159 1   
   159  152  160 1   
   160  153  154 1   
   161  153  161 1   
   162  153  162 1   
   163  154  155 1   
   164  154  156 1   
   165  163  164 1   
   166  163  168 1   
   167  164  165 1   
   168  164  166 1   
   169  164  167 1   
   170  170  171 1   
   171  170  172 1   
@<TRIPOS>SUBSTRUCTURE
     1 MOL         1 TEMP              0 ****  ****    0 ROOT
