@<TRIPOS>MOLECULE
MOL
  189   185     1     0     0
SMALL
resp


@<TRIPOS>ATOM
      1 C1         -0.3850    2.9030   -5.0070 c3        1 MOL     -0.275427
      2 C2          0.2440    2.6740   -3.6200 c         1 MOL      0.448499
      3 O1         -0.3460    2.9950   -2.5920 o         1 MOL     -0.518981
      4 H1         -1.0290    2.0600   -5.2570 hc        1 MOL      0.079658
      5 H2         -0.9760    3.8190   -4.9910 hc        1 MOL      0.079658
      6 H3          0.4030    2.9910   -5.7540 hc        1 MOL      0.079658
      7 N1          1.4470    2.1210   -3.5580 n         1 MOL     -0.428398
      8 C3          2.0610    1.7210   -2.3030 c3        1 MOL      0.149704
      9 C4          2.8800    2.8630   -1.6190 c         1 MOL      0.468902
     10 O2          4.1330    2.9270   -1.6430 o         1 MOL     -0.474532
     11 C5          3.0030    0.5370   -2.5690 c3        1 MOL     -0.188612
     12 C6          3.6690   -0.0640   -1.2740 c         1 MOL      0.704800
     13 O3          3.3130    0.2220   -0.1280 o         1 MOL     -0.667746
     14 O4          4.7530   -0.6240   -1.4860 o         1 MOL     -0.667746
     15 H4          1.9750    1.9350   -4.4000 hn        1 MOL      0.301269
     16 H5          1.3180    1.2890   -1.6320 h1        1 MOL      0.045150
     17 H6          3.7530    0.8890   -3.2630 hc        1 MOL      0.043964
     18 H7          2.4390   -0.2790   -3.0430 hc        1 MOL      0.043964
     19 N2          2.2270    3.9100   -1.0920 n         1 MOL     -0.594894
     20 C7          2.7940    5.2310   -0.7190 c3        1 MOL      0.162694
     21 C8          3.5670    5.1850    0.6310 c         1 MOL      0.432516
     22 O5          4.1850    6.2140    0.9050 o         1 MOL     -0.559149
     23 C9          1.6790    6.2260   -0.6280 c3        1 MOL     -0.341263
     24 C10         1.0200    6.7140   -1.9140 c3        1 MOL      0.454816
     25 C11         0.1730    7.9260   -1.5720 c3        1 MOL     -0.059515
     26 C12        -0.4810    8.4900   -2.8150 c3        1 MOL     -0.102367
     27 N3         -1.2230    7.4840   -3.6300 n4        1 MOL     -0.303168
     28 H8          1.2350    3.8560   -1.2780 hn        1 MOL      0.344067
     29 H9          3.4820    5.6250   -1.4570 h1        1 MOL      0.087531
     30 H10         2.1530    7.1250   -0.2220 hc        1 MOL      0.083640
     31 H11         0.9280    5.7890    0.0250 hc        1 MOL      0.083640
     32 H12         0.3350    5.9350   -2.2480 hc        1 MOL     -0.106408
     33 H13         1.7390    7.0070   -2.6780 hc        1 MOL     -0.106408
     34 H14         0.7690    8.7140   -1.1140 hc        1 MOL      0.048009
     35 H15        -0.6050    7.5070   -0.9240 hc        1 MOL      0.048009
     36 H16         0.3140    8.8730   -3.4480 hx        1 MOL      0.112529
     37 H17        -1.1770    9.2740   -2.5160 hx        1 MOL      0.112529
     38 H18        -2.0170    7.1310   -3.1190 hn        1 MOL      0.315709
     39 H19        -1.5850    7.8740   -4.4890 hn        1 MOL      0.315709
     40 H20        -0.6160    6.7080   -3.8510 hn        1 MOL      0.315709
     41 N4          3.5820    4.1010    1.4190 n         1 MOL     -0.276577
     42 C13         4.5440    3.6740    2.4840 c3        1 MOL      0.149912
     43 C14         5.5390    2.6320    2.0300 c         1 MOL      0.270298
     44 O6          6.4040    2.1280    2.7880 o         1 MOL     -0.518320
     45 C15         3.7930    3.2790    3.7310 c3        1 MOL     -0.256310
     46 C16         2.5150    2.4520    3.4950 c         1 MOL      0.691069
     47 O7          2.4100    1.7080    2.4980 o         1 MOL     -0.667612
     48 O8          1.4720    2.6580    4.1250 o         1 MOL     -0.667612
     49 H21         2.9560    3.3620    1.1380 hn        1 MOL      0.314657
     50 H22         5.1130    4.5550    2.7900 h1        1 MOL      0.084992
     51 H23         3.4000    4.2120    4.1200 hc        1 MOL      0.065403
     52 H24         4.4360    2.8610    4.5070 hc        1 MOL      0.065403
     53 N5          5.5470    2.3670    0.7160 n         1 MOL     -0.020975
     54 C17         6.6320    1.6750   -0.0050 c3        1 MOL     -0.122269
     55 C18         7.1260    0.3200    0.4800 c         1 MOL      0.505629
     56 O9          8.2950   -0.0040    0.3630 o         1 MOL     -0.591170
     57 H25         4.8390    2.9020    0.2330 hn        1 MOL      0.058638
     58 H26         7.4310    2.3940   -0.1370 h1        1 MOL      0.082057
     59 H27         6.2050    1.4260   -0.9790 h1        1 MOL      0.082057
     60 N6          6.2450   -0.4470    1.1310 n         1 MOL     -0.036437
     61 C19         6.7040   -1.6840    1.8080 c3        1 MOL     -0.105409
     62 C20         6.8230   -2.8190    0.8180 c         1 MOL      0.446789
     63 O10         7.3000   -3.8870    1.1210 o         1 MOL     -0.546085
     64 C21         5.8600   -2.0670    3.0210 c3        1 MOL     -0.194557
     65 C22         4.3970   -1.9270    2.6970 c         1 MOL      0.932230
     66 O11         4.0680   -2.4490    1.6560 o         1 MOL     -0.784632
     67 O12         3.6630   -1.3870    3.5250 o         1 MOL     -0.784632
     68 H28         5.2730   -0.2880    0.9270 hn        1 MOL     -0.019186
     69 H29         7.6900   -1.4910    2.2340 h1        1 MOL      0.135421
     70 H30         6.0100   -1.3630    3.8320 hc        1 MOL      0.048762
     71 H31         6.1150   -3.0580    3.3800 hc        1 MOL      0.048762
     72 N7          6.4340   -2.6330   -0.4280 n         1 MOL     -0.195161
     73 C23         6.4610   -3.5480   -1.5270 c3        1 MOL     -0.130399
     74 C24         5.2020   -4.3770   -1.5790 c         1 MOL      0.607965
     75 O13         5.2700   -5.3770   -2.2980 o         1 MOL     -0.598914
     76 H32         5.9980   -1.7480   -0.6470 hn        1 MOL      0.247161
     77 H33         7.2770   -4.2740   -1.4780 h1        1 MOL      0.084248
     78 H34         6.5130   -3.1190   -2.5330 h1        1 MOL      0.084248
     79 N8          4.0840   -3.9600   -0.9720 n         1 MOL     -0.254663
     80 C25         2.7720   -4.5880   -1.0650 c3        1 MOL     -0.288713
     81 C26         1.6270   -3.6300   -1.0850 c         1 MOL      0.845829
     82 O14         1.6240   -2.5990   -0.3350 o         1 MOL     -0.741677
     83 C27         2.7050   -5.5620    0.0930 c3        1 MOL      0.572563
     84 C28         3.2250   -6.9580   -0.2840 c3        1 MOL     -0.328693
     85 O15         3.3970   -5.1960    1.2590 oh        1 MOL     -0.691742
     86 H35         4.1850   -3.1550   -0.3630 hn        1 MOL      0.135524
     87 H36         2.5530   -5.2080   -1.9300 h1        1 MOL      0.080244
     88 H37         1.6590   -5.7090    0.3620 h1        1 MOL     -0.077882
     89 H38         3.6550   -4.2700    1.1720 ho        1 MOL      0.496585
     90 H39         2.4090   -7.4730   -0.7920 hc        1 MOL      0.074571
     91 H40         4.1140   -7.0110   -0.9100 hc        1 MOL      0.074571
     92 H41         3.4200   -7.5690    0.6000 hc        1 MOL      0.074571
     93 N9          0.5530   -3.9640   -1.8030 n         1 MOL     -0.621556
     94 C29        -0.6420   -3.1970   -1.9460 c3        1 MOL      0.086915
     95 C30        -1.8940   -3.7680   -1.2160 c         1 MOL      0.493898
     96 O16        -2.3050   -4.8580   -1.5330 o         1 MOL     -0.542954
     97 C31        -1.0110   -2.9380   -3.4140 c3        1 MOL      0.160687
     98 C32         0.1100   -2.2580   -4.1010 c3        1 MOL     -0.012517
     99 C33        -2.0860   -1.8820   -3.5260 c3        1 MOL     -0.333284
    100 C34        -0.0090   -2.1780   -5.6380 c3        1 MOL     -0.177686
    101 H42         0.6820   -4.6980   -2.4820 hn        1 MOL      0.314670
    102 H43        -0.4780   -2.2080   -1.5090 h1        1 MOL      0.049741
    103 H44        -1.3630   -3.8040   -3.9800 hc        1 MOL      0.004544
    104 H45         1.0490   -2.7420   -3.8400 hc        1 MOL      0.023980
    105 H46         0.2070   -1.2230   -3.7750 hc        1 MOL      0.023980
    106 H47        -2.4770   -1.7670   -4.5360 hc        1 MOL      0.060758
    107 H48        -2.9820   -2.0710   -2.9350 hc        1 MOL      0.060758
    108 H49        -1.8170   -0.9020   -3.1630 hc        1 MOL      0.060758
    109 H50        -0.7960   -1.5090   -6.0070 hc        1 MOL      0.047609
    110 H51         0.9450   -1.8350   -6.0190 hc        1 MOL      0.047609
    111 H52        -0.2820   -3.1620   -6.0320 hc        1 MOL      0.047609
    112 N10        -2.4230   -3.0070   -0.2140 n         1 MOL     -0.170341
    113 C35        -3.6580   -3.2860    0.4640 c3        1 MOL     -0.080680
    114 C36        -4.8640   -2.7680   -0.2370 c         1 MOL      0.433972
    115 O17        -4.7550   -1.9100   -1.1750 o         1 MOL     -0.366125
    116 C37        -3.5450   -2.6000    1.8120 c3        1 MOL      0.370560
    117 C38        -2.5820   -3.3420    2.7380 c3        1 MOL     -0.284006
    118 O18        -3.1430   -1.2480    1.8270 oh        1 MOL     -0.613401
    119 H53        -1.9780   -2.1070   -0.0990 hn        1 MOL      0.107390
    120 H54        -3.8170   -4.3590    0.6130 h1        1 MOL      0.083591
    121 H55        -4.5460   -2.6150    2.2470 h1        1 MOL     -0.052314
    122 H56        -2.1880   -1.3470    1.7950 ho        1 MOL      0.394970
    123 H57        -2.9830   -4.3400    2.9280 hc        1 MOL      0.070679
    124 H58        -1.6230   -3.4290    2.2180 hc        1 MOL      0.070679
    125 H59        -2.4650   -2.7940    3.6670 hc        1 MOL      0.070679
    126 N11        -6.0550   -3.1380    0.2030 n         1 MOL     -0.398285
    127 C39        -7.4250   -2.7280   -0.3540 c3        1 MOL     -0.114285
    128 C40        -7.5640   -1.2190   -0.3460 c         1 MOL      0.278081
    129 O19        -7.7270   -0.5850   -1.3960 o         1 MOL     -0.454646
    130 C41        -8.6860   -3.4360    0.3550 c3        1 MOL      0.302441
    131 C42        -8.5930   -4.8700   -0.1620 c3        1 MOL     -0.408801
    132 O20        -8.7190   -3.4850    1.8200 oh        1 MOL     -0.523696
    133 H60        -6.0940   -3.8580    0.9130 hn        1 MOL      0.279232
    134 H61        -7.3040   -2.9330   -1.4170 h1        1 MOL      0.155251
    135 H62        -9.6120   -3.0600   -0.1030 h1        1 MOL      0.056441
    136 H63        -8.9550   -2.5920    2.0790 ho        1 MOL      0.328502
    137 H64        -9.5290   -5.3090    0.1970 hc        1 MOL      0.123014
    138 H65        -8.5810   -4.8250   -1.2470 hc        1 MOL      0.123014
    139 H66        -7.7320   -5.3450    0.3070 hc        1 MOL      0.123014
    140 N12        -7.1160   -0.6420    0.7750 n         1 MOL     -0.194528
    141 C43        -7.0130    0.7620    1.0650 c3        1 MOL     -0.011635
    142 C44        -6.0660    1.4980    0.1610 c         1 MOL      0.406199
    143 O21        -6.5060    2.5730   -0.2050 o         1 MOL     -0.561065
    144 C45        -6.6310    0.9020    2.5390 c3        1 MOL     -0.101930
    145 C46        -6.5810    2.2440    3.2050 c3        1 MOL      0.044959
    146 C47        -6.8370    2.1140    4.6740 c3        1 MOL      0.115353
    147 C48        -6.7070    3.4880    5.4220 c3        1 MOL     -0.089263
    148 N13        -7.2980    3.4430    6.6970 n4        1 MOL     -0.080896
    149 H67        -6.9640   -1.1770    1.6190 hn        1 MOL      0.186136
    150 H68        -8.0060    1.2070    0.9380 h1        1 MOL      0.085803
    151 H69        -5.6340    0.4680    2.6150 hc        1 MOL      0.038893
    152 H70        -7.2870    0.2970    3.1600 hc        1 MOL      0.038893
    153 H71        -7.4220    2.8050    2.7910 hc        1 MOL      0.003735
    154 H72        -5.6580    2.7380    2.9020 hc        1 MOL      0.003735
    155 H73        -6.1770    1.3700    5.1290 hc        1 MOL     -0.005995
    156 H74        -7.8500    1.7860    4.9290 hc        1 MOL     -0.005995
    157 H75        -7.2470    4.2920    4.9220 hx        1 MOL      0.097493
    158 H76        -5.6390    3.6470    5.5780 hx        1 MOL      0.097493
    159 H77        -7.2540    4.3780    7.0760 hn        1 MOL      0.226510
    160 H78        -8.2850    3.2560    6.6060 hn        1 MOL      0.226510
    161 H79        -6.9810    2.7180    7.3190 hn        1 MOL      0.226510
    162 N14        -4.9660    0.9930   -0.3220 n         1 MOL     -0.007848
    163 C49        -4.0250    1.6790   -1.2190 c3        1 MOL     -0.317954
    164 C50        -4.5410    1.6690   -2.6560 c         1 MOL      0.501265
    165 O22        -4.1470    2.5630   -3.4060 o         1 MOL     -0.579841
    166 C51        -2.7170    0.9750   -1.2200 c3        1 MOL     -0.157146
    167 C52        -2.0220    1.4810    0.0930 c3        1 MOL     -0.217849
    168 C53        -0.7500    0.7110    0.3850 c         1 MOL      0.788769
    169 O23         0.3060    1.3100    0.5010 o         1 MOL     -0.721224
    170 O24        -0.8050   -0.5020    0.6580 o         1 MOL     -0.721224
    171 H80        -4.6620    0.0920    0.0340 hn        1 MOL      0.167752
    172 H81        -4.0000    2.7270   -0.9120 h1        1 MOL      0.159143
    173 H82        -2.1720    1.2830   -2.1080 hc        1 MOL      0.173766
    174 H83        -2.6750   -0.1100   -1.2280 hc        1 MOL      0.173766
    175 H84        -2.7280    1.2690    0.8950 hc        1 MOL      0.065142
    176 H85        -1.8780    2.5450   -0.0460 hc        1 MOL      0.065142
    177 N15        -5.2800    0.6550   -3.0090 n         1 MOL     -0.095667
    178 C54        -6.0080    0.6380   -4.3020 c3        1 MOL     -0.329041
    179 H86        -6.2710   -0.3880   -4.5560 h1        1 MOL      0.125594
    180 H87        -6.9160    1.2350   -4.2160 h1        1 MOL      0.125594
    181 H88        -5.3710    1.0540   -5.0830 h1        1 MOL      0.125594
    182 H89        -5.2990   -0.0900   -2.3340 hn        1 MOL      0.157007
    183 Ca1         1.7740   -0.6890    1.6090 Ca        1 MOL      1.758575
    184 O25         0.2320    0.1630    3.8600 oh        1 MOL     -0.851265
    185 H90        -0.0650   -0.2890    4.6470 ho        1 MOL      0.396898
    186 H91         0.5670    1.0040    4.1720 ho        1 MOL      0.396898
    187 O26         1.4880   -3.0430    2.9670 oh        1 MOL     -0.851265
    188 H92         2.1360   -3.7280    3.1050 ho        1 MOL      0.396898
    189 H93         0.8820   -3.1370    3.7020 ho        1 MOL      0.396898
@<TRIPOS>BOND
     1    1    2 1   
     2    1    4 1   
     3    1    5 1   
     4    1    6 1   
     5    2    3 2   
     6    2    7 1   
     7    7    8 1   
     8    7   15 1   
     9    8    9 1   
    10    8   11 1   
    11    8   16 1   
    12    9   10 2   
    13    9   19 1   
    14   11   12 1   
    15   11   17 1   
    16   11   18 1   
    17   12   13 1   
    18   12   14 1   
    19   19   20 1   
    20   19   28 1   
    21   20   21 1   
    22   20   23 1   
    23   20   29 1   
    24   21   22 2   
    25   21   41 1   
    26   23   24 1   
    27   23   30 1   
    28   23   31 1   
    29   24   25 1   
    30   24   32 1   
    31   24   33 1   
    32   25   26 1   
    33   25   34 1   
    34   25   35 1   
    35   26   27 1   
    36   26   36 1   
    37   26   37 1   
    38   27   38 1   
    39   27   39 1   
    40   27   40 1   
    41   41   42 1   
    42   41   49 1   
    43   42   43 1   
    44   42   45 1   
    45   42   50 1   
    46   43   44 2   
    47   43   53 1   
    48   45   46 1   
    49   45   51 1   
    50   45   52 1   
    51   46   47 1   
    52   46   48 1   
    53   53   54 1   
    54   53   57 1   
    55   54   55 1   
    56   54   58 1   
    57   54   59 1   
    58   55   56 2   
    59   55   60 1   
    60   60   61 1   
    61   60   68 1   
    62   61   62 1   
    63   61   64 1   
    64   61   69 1   
    65   62   63 2   
    66   62   72 1   
    67   64   65 1   
    68   64   70 1   
    69   64   71 1   
    70   65   66 1   
    71   65   67 1   
    72   72   73 1   
    73   72   76 1   
    74   73   74 1   
    75   73   77 1   
    76   73   78 1   
    77   74   75 2   
    78   74   79 1   
    79   79   80 1   
    80   79   86 1   
    81   80   81 1   
    82   80   83 1   
    83   80   87 1   
    84   81   82 2   
    85   81   93 1   
    86   83   84 1   
    87   83   85 1   
    88   83   88 1   
    89   84   90 1   
    90   84   91 1   
    91   84   92 1   
    92   85   89 1   
    93   93   94 1   
    94   93  101 1   
    95   94   95 1   
    96   94   97 1   
    97   94  102 1   
    98   95   96 2   
    99   95  112 1   
   100   97   98 1   
   101   97   99 1   
   102   97  103 1   
   103   98  100 1   
   104   98  104 1   
   105   98  105 1   
   106   99  106 1   
   107   99  107 1   
   108   99  108 1   
   109  100  109 1   
   110  100  110 1   
   111  100  111 1   
   112  112  113 1   
   113  112  119 1   
   114  113  114 1   
   115  113  116 1   
   116  113  120 1   
   117  114  115 2   
   118  114  126 1   
   119  116  117 1   
   120  116  118 1   
   121  116  121 1   
   122  117  123 1   
   123  117  124 1   
   124  117  125 1   
   125  118  122 1   
   126  126  127 1   
   127  126  133 1   
   128  127  128 1   
   129  127  130 1   
   130  127  134 1   
   131  128  129 2   
   132  128  140 1   
   133  130  131 1   
   134  130  132 1   
   135  130  135 1   
   136  131  137 1   
   137  131  138 1   
   138  131  139 1   
   139  132  136 1   
   140  140  141 1   
   141  140  149 1   
   142  141  142 1   
   143  141  144 1   
   144  141  150 1   
   145  142  143 2   
   146  142  162 1   
   147  144  145 1   
   148  144  151 1   
   149  144  152 1   
   150  145  146 1   
   151  145  153 1   
   152  145  154 1   
   153  146  147 1   
   154  146  155 1   
   155  146  156 1   
   156  147  148 1   
   157  147  157 1   
   158  147  158 1   
   159  148  159 1   
   160  148  160 1   
   161  148  161 1   
   162  162  163 1   
   163  162  171 1   
   164  163  164 1   
   165  163  166 1   
   166  163  172 1   
   167  164  165 2   
   168  164  177 1   
   169  166  167 1   
   170  166  173 1   
   171  166  174 1   
   172  167  168 1   
   173  167  175 1   
   174  167  176 1   
   175  168  169 1   
   176  168  170 1   
   177  177  178 1   
   178  177  182 1   
   179  178  179 1   
   180  178  180 1   
   181  178  181 1   
   182  184  185 1   
   183  184  186 1   
   184  187  188 1   
   185  187  189 1   
@<TRIPOS>SUBSTRUCTURE
     1 MOL         1 TEMP              0 ****  ****    0 ROOT
