@<TRIPOS>MOLECULE
MOL
  175   173     1     0     0
SMALL
resp


@<TRIPOS>ATOM
      1 C1          0.6940    3.8680    5.5430 c3        1 MOL     -0.405785
      2 C2          0.1720    3.6810    4.1230 c         1 MOL      0.660015
      3 O1          0.8830    3.6330    3.1130 o         1 MOL     -0.505283
      4 H1          1.4490    3.1100    5.7540 hc        1 MOL      0.100238
      5 H2          1.1390    4.8580    5.6400 hc        1 MOL      0.100238
      6 H3         -0.1290    3.7670    6.2490 hc        1 MOL      0.100238
      7 N1         -1.1210    3.6510    3.9810 n         1 MOL     -0.514983
      8 C3         -1.8990    3.3880    2.7700 c3        1 MOL     -0.015117
      9 C4         -1.8500    4.6090    1.8610 c         1 MOL      0.528443
     10 O2         -1.7930    5.7900    2.2890 o         1 MOL     -0.565764
     11 C5         -3.4120    3.1950    3.0550 c3        1 MOL     -0.364312
     12 C6         -4.2710    2.6080    1.9540 c         1 MOL      0.780267
     13 O3         -5.4520    2.3120    2.1740 o         1 MOL     -0.671021
     14 O4         -3.7220    2.2880    0.8580 o         1 MOL     -0.671021
     15 H4         -1.6380    3.7900    4.8350 hn        1 MOL      0.322121
     16 H5         -1.5310    2.5070    2.2370 h1        1 MOL      0.172991
     17 H6         -3.7240    4.1890    3.3860 hc        1 MOL      0.087054
     18 H7         -3.6370    2.6550    3.9770 hc        1 MOL      0.087054
     19 N2         -1.8990    4.4560    0.5310 n         1 MOL     -0.310298
     20 C7         -2.2630    5.5330   -0.4010 c3        1 MOL      0.149775
     21 C8         -3.2650    5.2030   -1.5110 c         1 MOL      0.393796
     22 O5         -3.6840    6.0080   -2.3210 o         1 MOL     -0.563205
     23 C9         -0.9670    5.9460   -1.0700 c3        1 MOL     -0.157850
     24 H8         -2.1070    3.5120    0.2370 hn        1 MOL      0.150016
     25 H9         -2.5550    6.4390    0.1340 h1        1 MOL      0.056767
     26 H10        -0.1680    5.9100   -0.3370 hc        1 MOL      0.044367
     27 H11        -0.7030    5.3370   -1.9290 hc        1 MOL      0.044367
     28 H12        -1.0020    6.9920   -1.3800 hc        1 MOL      0.044367
     29 N3         -3.8030    3.9680   -1.6380 n         1 MOL     -0.464485
     30 C10        -4.6310    3.5320   -2.7830 c3        1 MOL      0.447903
     31 C11        -5.8250    2.6960   -2.3060 c         1 MOL      0.161204
     32 O6         -6.7460    2.5010   -3.0980 o         1 MOL     -0.531857
     33 C12        -3.7490    2.7840   -3.7850 c3        1 MOL     -0.286156
     34 C13        -3.1430    1.5090   -3.3100 c         1 MOL      0.738988
     35 O7         -2.2810    0.9860   -4.0020 o         1 MOL     -0.687108
     36 O8         -3.4550    1.0690   -2.2030 o         1 MOL     -0.687108
     37 H13        -3.3000    3.3370   -1.0280 hn        1 MOL      0.352208
     38 H14        -5.0190    4.3660   -3.3690 h1        1 MOL      0.015667
     39 H15        -2.9390    3.4500   -4.1110 hc        1 MOL      0.050828
     40 H16        -4.3740    2.5510   -4.6460 hc        1 MOL      0.050828
     41 N4         -5.8820    2.1010   -1.0930 n         1 MOL      0.019505
     42 C14        -6.9810    1.3520   -0.5360 c3        1 MOL     -0.010286
     43 C15        -7.1680   -0.0630   -1.1140 c         1 MOL      0.388670
     44 O9         -8.3140   -0.5680   -1.1480 o         1 MOL     -0.590503
     45 H17        -5.1780    2.4090   -0.4430 hn        1 MOL     -0.013547
     46 H18        -7.9360    1.8660   -0.5220 h1        1 MOL      0.059789
     47 H19        -6.8100    1.2900    0.5390 h1        1 MOL      0.059789
     48 N5         -6.1410   -0.7800   -1.6910 n         1 MOL     -0.129373
     49 C16        -6.2520   -2.1480   -2.2350 c3        1 MOL     -0.028023
     50 C17        -6.2030   -3.2800   -1.1200 c         1 MOL      0.412367
     51 O10        -6.0780   -4.4580   -1.3360 o         1 MOL     -0.523722
     52 C18        -5.1480   -2.2970   -3.2260 c3        1 MOL     -0.084608
     53 C19        -3.7910   -2.2220   -2.7060 c         1 MOL      0.467903
     54 N6         -2.8430   -2.2920   -3.6050 n         1 MOL     -0.467985
     55 O11        -3.4270   -1.8880   -1.5350 o         1 MOL     -0.611880
     56 H20        -5.2390   -0.3300   -1.7100 hn        1 MOL      0.138572
     57 H21        -7.1660   -2.2930   -2.8120 h1        1 MOL      0.102883
     58 H22        -5.3800   -1.6010   -4.0320 hc        1 MOL      0.048727
     59 H23        -5.2850   -3.2910   -3.6490 hc        1 MOL      0.048727
     60 H24        -3.0870   -2.4990   -4.5590 hn        1 MOL      0.292260
     61 H25        -1.9090   -2.0870   -3.2660 hn        1 MOL      0.292260
     62 N7         -6.2490   -2.9440    0.1330 n         1 MOL     -0.151903
     63 C20        -6.4160   -3.8460    1.3200 c3        1 MOL     -0.240339
     64 C21        -5.0930   -4.4630    1.7520 c         1 MOL      0.524969
     65 O12        -5.0450   -5.2060    2.7530 o         1 MOL     -0.583497
     66 H26        -6.3100   -1.9660    0.3550 hn        1 MOL      0.166860
     67 H27        -7.1140   -4.6680    1.2190 h1        1 MOL      0.121429
     68 H28        -6.7020   -3.3490    2.2480 h1        1 MOL      0.121429
     69 N8         -4.0220   -4.1270    1.0620 n         1 MOL     -0.106881
     70 C22        -2.6290   -4.6200    1.3340 c3        1 MOL     -0.472578
     71 C23        -1.6190   -3.4700    1.4870 c         1 MOL      0.933517
     72 O13        -1.9670   -2.4190    0.9920 o         1 MOL     -0.769551
     73 C24        -2.0540   -5.5040    0.2280 c3        1 MOL      0.653102
     74 C25        -2.8420   -6.8090    0.1650 c3        1 MOL     -0.328102
     75 O14        -2.1210   -4.8890   -1.0580 oh        1 MOL     -0.681670
     76 H29        -4.1390   -3.5570    0.2460 hn        1 MOL      0.177903
     77 H30        -2.6800   -5.2080    2.2520 h1        1 MOL      0.120483
     78 H31        -1.0580   -5.8290    0.5100 h1        1 MOL     -0.057730
     79 H32        -2.3050   -3.9480   -0.9950 ho        1 MOL      0.414916
     80 H33        -3.7810   -6.7490   -0.3950 hc        1 MOL      0.068886
     81 H34        -2.2330   -7.6000   -0.2740 hc        1 MOL      0.068886
     82 H35        -3.1470   -7.2470    1.1140 hc        1 MOL      0.068886
     83 N9         -0.4690   -3.6470    2.1830 n         1 MOL     -0.696581
     84 C26         0.6760   -2.6630    2.1910 c3        1 MOL      0.024814
     85 C27         1.5540   -2.9040    0.9280 c         1 MOL      0.400894
     86 O15         1.8210   -4.0590    0.5990 o         1 MOL     -0.542441
     87 C28         1.5360   -2.9300    3.4730 c3        1 MOL      0.176355
     88 C29         0.7290   -2.9820    4.7990 c3        1 MOL      0.168591
     89 C30         2.8270   -1.9960    3.4770 c3        1 MOL     -0.230805
     90 C31         1.5810   -3.4530    6.0480 c3        1 MOL     -0.128683
     91 H36        -0.2810   -4.5380    2.6200 hn        1 MOL      0.336699
     92 H37         0.4000   -1.6140    2.1890 h1        1 MOL      0.101341
     93 H38         1.9510   -3.9290    3.3750 hc        1 MOL     -0.024862
     94 H39        -0.0810   -3.6980    4.6540 hc        1 MOL     -0.054048
     95 H40         0.3400   -1.9680    4.9080 hc        1 MOL     -0.054048
     96 H41         3.6320   -2.4160    4.0830 hc        1 MOL      0.045027
     97 H42         3.2500   -1.8220    2.4860 hc        1 MOL      0.045027
     98 H43         2.5220   -1.0480    3.9220 hc        1 MOL      0.045027
     99 H44         2.3300   -2.7140    6.3010 hc        1 MOL      0.018694
    100 H45         0.8770   -3.5150    6.8800 hc        1 MOL      0.018694
    101 H46         2.0390   -4.4270    5.8680 hc        1 MOL      0.018694
    102 N10         1.8890   -1.8170    0.1420 n         1 MOL     -0.124021
    103 C32         2.6580   -1.8880   -1.0900 c3        1 MOL      0.035425
    104 C33         4.0930   -1.4970   -0.8190 c         1 MOL      0.484523
    105 O16         4.3860   -0.7910    0.1570 o         1 MOL     -0.377898
    106 C34         1.8890   -1.0340   -2.1690 c3        1 MOL     -0.407017
    107 C35         0.3600   -1.2770   -2.2720 c         1 MOL      0.830971
    108 O17        -0.3970   -0.6760   -1.5040 o         1 MOL     -0.693977
    109 O18        -0.0700   -2.0060   -3.1720 o         1 MOL     -0.693977
    110 H47         1.5060   -0.9120    0.3880 hn        1 MOL      0.195734
    111 H48         2.7430   -2.9280   -1.4160 h1        1 MOL      0.066543
    112 H49         2.3390   -1.0100   -3.1580 hc        1 MOL      0.107331
    113 H50         1.9810    0.0050   -1.8540 hc        1 MOL      0.107331
    114 N11         5.0630   -1.8970   -1.6910 n         1 MOL     -0.696344
    115 C36         6.4710   -1.4830   -1.5120 c3        1 MOL      0.421367
    116 C37         6.7560   -0.0270   -1.1020 c         1 MOL      0.247860
    117 O19         7.4710    0.1280   -0.0660 o         1 MOL     -0.494795
    118 C38         7.3180   -2.1730   -2.6260 c3        1 MOL     -0.016434
    119 C39         8.8040   -2.0560   -2.3390 ca        1 MOL      0.032606
    120 C40         9.3730   -2.9680   -1.5060 ca        1 MOL     -0.149864
    121 C41         9.5200   -0.9470   -2.7660 ca        1 MOL     -0.149864
    122 C42        10.7290   -2.8360   -1.0500 ca        1 MOL     -0.100475
    123 C43        10.8820   -0.8250   -2.3740 ca        1 MOL     -0.100475
    124 C44        11.4800   -1.8020   -1.5310 ca        1 MOL     -0.133724
    125 H51         4.7510   -2.5360   -2.4060 hn        1 MOL      0.344511
    126 H52         6.8500   -1.9980   -0.6270 h1        1 MOL      0.018007
    127 H53         7.0930   -1.8450   -3.6400 hc        1 MOL      0.009042
    128 H54         7.1250   -3.2410   -2.6810 hc        1 MOL      0.009042
    129 H55         8.7350   -3.6920   -1.0220 ha        1 MOL      0.102131
    130 H56         9.1200   -0.3010   -3.5260 ha        1 MOL      0.102131
    131 H57        11.0120   -3.4000   -0.1750 ha        1 MOL      0.110803
    132 H58        11.4270   -0.0000   -2.8150 ha        1 MOL      0.110803
    133 H59        12.4770   -1.5780   -1.1880 ha        1 MOL      0.105934
    134 N12         6.3360    0.9950   -1.8300 n         1 MOL     -0.043573
    135 C45         6.5440    2.4250   -1.5200 c3        1 MOL      0.063651
    136 C46         5.8850    2.7770   -0.1410 c         1 MOL      0.304893
    137 O20         6.4230    3.6240    0.5660 o         1 MOL     -0.472522
    138 C47         6.0310    3.2460   -2.6630 c3        1 MOL     -0.191445
    139 C48         5.0850    2.2380   -3.3500 c3        1 MOL     -0.019603
    140 C49         5.7470    0.8620   -3.2120 c3        1 MOL      0.050134
    141 H60         7.6330    2.5610   -1.4930 h1        1 MOL      0.049787
    142 H61         5.5550    4.1590   -2.3130 hc        1 MOL      0.083457
    143 H62         6.8550    3.5330   -3.3270 hc        1 MOL      0.083457
    144 H63         4.1170    2.1910   -2.8610 hc        1 MOL      0.023246
    145 H64         4.9290    2.4270   -4.4170 hc        1 MOL      0.023246
    146 H65         5.0840    0.0040   -3.2680 h1        1 MOL      0.005421
    147 H66         6.5470    0.7950   -3.9480 h1        1 MOL      0.005421
    148 N13         4.7080    2.1300    0.2260 n         1 MOL     -0.079843
    149 C50         3.9940    2.2590    1.4850 c3        1 MOL     -0.198028
    150 C51         4.7790    1.8040    2.6720 c         1 MOL      0.495065
    151 O21         4.9640    2.4780    3.6680 o         1 MOL     -0.536490
    152 C52         2.6150    1.5980    1.3880 c3        1 MOL     -0.101426
    153 C53         1.6090    2.2670    0.3910 c3        1 MOL     -0.260894
    154 C54         0.2890    1.5230    0.3710 c         1 MOL      0.669839
    155 O22        -0.7030    1.9130   -0.3010 o         1 MOL     -0.703194
    156 O23         0.1320    0.4910    1.0790 o         1 MOL     -0.703194
    157 H67         4.2740    1.4290   -0.3470 hn        1 MOL      0.178338
    158 H68         3.8200    3.3170    1.6880 h1        1 MOL      0.130529
    159 H69         2.1110    1.5870    2.3550 hc        1 MOL      0.046693
    160 H70         2.7370    0.5440    1.1350 hc        1 MOL      0.046693
    161 H71         2.0070    2.2810   -0.6210 hc        1 MOL      0.098331
    162 H72         1.5270    3.3120    0.6940 hc        1 MOL      0.098331
    163 N14         5.3550    0.5650    2.4500 n         1 MOL     -0.051289
    164 C55         6.2520   -0.0060    3.4060 c3        1 MOL     -0.231820
    165 H73         6.6240   -0.9590    3.0300 h1        1 MOL      0.075181
    166 H74         7.0900    0.6720    3.5680 h1        1 MOL      0.075181
    167 H75         5.7270   -0.1680    4.3470 h1        1 MOL      0.075181
    168 H76         5.0030    0.1000    1.6260 hn        1 MOL      0.094700
    169 Ca1        -2.4180   -0.0200   -0.1330 Ca        1 MOL      1.722520
    170 O24        -1.9440    0.0540    2.5920 oh        1 MOL     -0.777755
    171 H77        -1.0240    0.2010    2.3650 ho        1 MOL      0.379748
    172 H78        -1.9420   -0.0750    3.5460 ho        1 MOL      0.379748
    173 O25        -4.8260   -0.2660    1.2180 oh        1 MOL     -0.777755
    174 H79        -4.8980    0.6530    1.4530 ho        1 MOL      0.379748
    175 H80        -5.5190   -0.6980    1.7080 ho        1 MOL      0.379748
@<TRIPOS>BOND
     1    1    2 1   
     2    1    4 1   
     3    1    5 1   
     4    1    6 1   
     5    2    3 2   
     6    2    7 1   
     7    7    8 1   
     8    7   15 1   
     9    8    9 1   
    10    8   11 1   
    11    8   16 1   
    12    9   10 2   
    13    9   19 1   
    14   11   12 1   
    15   11   17 1   
    16   11   18 1   
    17   12   13 1   
    18   12   14 1   
    19   19   20 1   
    20   19   24 1   
    21   20   21 1   
    22   20   23 1   
    23   20   25 1   
    24   21   22 2   
    25   21   29 1   
    26   23   26 1   
    27   23   27 1   
    28   23   28 1   
    29   29   30 1   
    30   29   37 1   
    31   30   31 1   
    32   30   33 1   
    33   30   38 1   
    34   31   32 2   
    35   31   41 1   
    36   33   34 1   
    37   33   39 1   
    38   33   40 1   
    39   34   35 1   
    40   34   36 1   
    41   41   42 1   
    42   41   45 1   
    43   42   43 1   
    44   42   46 1   
    45   42   47 1   
    46   43   44 2   
    47   43   48 1   
    48   48   49 1   
    49   48   56 1   
    50   49   50 1   
    51   49   52 1   
    52   49   57 1   
    53   50   51 2   
    54   50   62 1   
    55   52   53 1   
    56   52   58 1   
    57   52   59 1   
    58   53   54 1   
    59   53   55 2   
    60   54   60 1   
    61   54   61 1   
    62   62   63 1   
    63   62   66 1   
    64   63   64 1   
    65   63   67 1   
    66   63   68 1   
    67   64   65 2   
    68   64   69 1   
    69   69   70 1   
    70   69   76 1   
    71   70   71 1   
    72   70   73 1   
    73   70   77 1   
    74   71   72 2   
    75   71   83 1   
    76   73   74 1   
    77   73   75 1   
    78   73   78 1   
    79   74   80 1   
    80   74   81 1   
    81   74   82 1   
    82   75   79 1   
    83   83   84 1   
    84   83   91 1   
    85   84   85 1   
    86   84   87 1   
    87   84   92 1   
    88   85   86 2   
    89   85  102 1   
    90   87   88 1   
    91   87   89 1   
    92   87   93 1   
    93   88   90 1   
    94   88   94 1   
    95   88   95 1   
    96   89   96 1   
    97   89   97 1   
    98   89   98 1   
    99   90   99 1   
   100   90  100 1   
   101   90  101 1   
   102  102  103 1   
   103  102  110 1   
   104  103  104 1   
   105  103  106 1   
   106  103  111 1   
   107  104  105 2   
   108  104  114 1   
   109  106  107 1   
   110  106  112 1   
   111  106  113 1   
   112  107  108 1   
   113  107  109 1   
   114  114  115 1   
   115  114  125 1   
   116  115  116 1   
   117  115  118 1   
   118  115  126 1   
   119  116  117 2   
   120  116  134 1   
   121  118  119 1   
   122  118  127 1   
   123  118  128 1   
   124  119  120 ar  
   125  119  121 ar  
   126  120  122 ar  
   127  120  129 1   
   128  121  123 ar  
   129  121  130 1   
   130  122  124 ar  
   131  122  131 1   
   132  123  124 ar  
   133  123  132 1   
   134  124  133 1   
   135  134  135 1   
   136  134  140 1   
   137  135  136 1   
   138  135  138 1   
   139  135  141 1   
   140  136  137 2   
   141  136  148 1   
   142  138  139 1   
   143  138  142 1   
   144  138  143 1   
   145  139  140 1   
   146  139  144 1   
   147  139  145 1   
   148  140  146 1   
   149  140  147 1   
   150  148  149 1   
   151  148  157 1   
   152  149  150 1   
   153  149  152 1   
   154  149  158 1   
   155  150  151 2   
   156  150  163 1   
   157  152  153 1   
   158  152  159 1   
   159  152  160 1   
   160  153  154 1   
   161  153  161 1   
   162  153  162 1   
   163  154  155 1   
   164  154  156 1   
   165  163  164 1   
   166  163  168 1   
   167  164  165 1   
   168  164  166 1   
   169  164  167 1   
   170  170  171 1   
   171  170  172 1   
   172  173  174 1   
   173  173  175 1   
@<TRIPOS>SUBSTRUCTURE
     1 MOL         1 TEMP              0 ****  ****    0 ROOT
