@<TRIPOS>MOLECULE
MOL
  179   176     1     0     0
SMALL
resp


@<TRIPOS>ATOM
      1 C1         -1.9810   -3.1600    5.4250 c3        1 MOL     -0.498086
      2 C2         -1.3180   -2.8570    4.0740 c         1 MOL      0.743232
      3 O1         -2.0170   -2.6100    3.0890 o         1 MOL     -0.604348
      4 H1         -1.2150   -3.2350    6.1970 hc        1 MOL      0.126817
      5 H2         -2.6730   -2.3570    5.6790 hc        1 MOL      0.126817
      6 H3         -2.5250   -4.1030    5.3610 hc        1 MOL      0.126817
      7 N1         -0.0120   -2.6420    4.0180 n         1 MOL     -0.645446
      8 C3          0.6270   -2.4630    2.7220 c3        1 MOL      0.160332
      9 C4          0.7520   -3.8410    1.8770 c         1 MOL      0.369601
     10 O2          1.5200   -4.7720    2.2530 o         1 MOL     -0.563252
     11 C5          2.0320   -1.8490    2.9480 c3        1 MOL      0.100404
     12 C6          2.8350   -1.7870    1.6720 c         1 MOL      0.692087
     13 O3          2.2880   -1.8720    0.5490 o         1 MOL     -0.743005
     14 O4          4.0810   -1.4910    1.8020 o         1 MOL     -0.743005
     15 H4          0.5870   -2.7250    4.8300 hn        1 MOL      0.348386
     16 H5         -0.0050   -1.7970    2.1310 h1        1 MOL     -0.161181
     17 H6          2.5790   -2.4600    3.6640 hc        1 MOL      0.004560
     18 H7          1.9850   -0.9040    3.4860 hc        1 MOL      0.004560
     19 N2          0.2340   -3.7770    0.6670 n         1 MOL     -0.096036
     20 C7          0.0430   -4.9530   -0.2390 c3        1 MOL      0.020228
     21 C8          1.1050   -5.1560   -1.3040 c         1 MOL      0.627232
     22 O5          0.9340   -6.0280   -2.1170 o         1 MOL     -0.562777
     23 C9         -1.3950   -4.9890   -0.8110 c3        1 MOL     -0.185138
     24 C10        -2.4330   -5.1720    0.2770 c3        1 MOL      0.076680
     25 C11        -2.3050   -6.2570    1.3470 c3        1 MOL     -0.193052
     26 C12        -3.7040   -6.3470    2.0100 c3        1 MOL      0.070378
     27 N3         -3.6240   -7.1320    3.2020 n4        1 MOL     -0.396177
     28 H8         -0.2040   -2.8970    0.4430 hn        1 MOL      0.250774
     29 H9          0.2090   -5.8680    0.3180 h1        1 MOL      0.039459
     30 H10        -1.3610   -5.8350   -1.4980 hc        1 MOL      0.063921
     31 H11        -1.4980   -4.0370   -1.3350 hc        1 MOL      0.063921
     32 H12        -3.4330   -5.2610   -0.1520 hc        1 MOL      0.017394
     33 H13        -2.5180   -4.2550    0.8620 hc        1 MOL      0.017394
     34 H14        -1.5560   -5.8930    2.0460 hc        1 MOL      0.080112
     35 H15        -1.8930   -7.1570    0.8750 hc        1 MOL      0.080112
     36 H16        -4.4350   -6.7600    1.3170 hx        1 MOL      0.092968
     37 H17        -4.1020   -5.3540    2.2370 hx        1 MOL      0.092968
     38 H18        -3.3210   -8.0860    3.0980 hn        1 MOL      0.335673
     39 H19        -3.0740   -6.6680    3.9010 hn        1 MOL      0.335673
     40 H20        -4.5840   -7.1890    3.5120 hn        1 MOL      0.335673
     41 N4          2.2270   -4.3610   -1.3640 n         1 MOL     -0.362674
     42 C13         3.2840   -4.6960   -2.3190 c3        1 MOL     -0.184141
     43 C14         4.6780   -4.4550   -1.7670 c         1 MOL      0.638326
     44 O6          5.6810   -4.7340   -2.3690 o         1 MOL     -0.548574
     45 C15         2.9460   -4.0290   -3.6920 c3        1 MOL      0.084960
     46 C16         3.0390   -2.4540   -3.7050 c         1 MOL      0.642890
     47 O7          2.9770   -1.8870   -4.8150 o         1 MOL     -0.685305
     48 O8          3.0570   -1.8930   -2.5890 o         1 MOL     -0.685305
     49 H21         2.3140   -3.5960   -0.7140 hn        1 MOL     -0.025379
     50 H22         3.2800   -5.7870   -2.3610 h1        1 MOL      0.121387
     51 H23         1.9550   -4.3570   -3.9990 hc        1 MOL     -0.005312
     52 H24         3.5770   -4.4310   -4.4780 hc        1 MOL     -0.005312
     53 N5          4.7450   -3.8910   -0.5520 n         1 MOL     -0.448187
     54 C17         6.0060   -3.6410    0.1850 c3        1 MOL     -0.241303
     55 C18         6.7740   -2.3700   -0.1800 c         1 MOL      0.584349
     56 O9          7.8540   -2.1000    0.3160 o         1 MOL     -0.584637
     57 H25         3.9110   -3.7710    0.0010 hn        1 MOL      0.409547
     58 H26         6.7240   -4.4620    0.1360 h1        1 MOL      0.134395
     59 H27         5.8420   -3.5960    1.2620 h1        1 MOL      0.134395
     60 N6          6.1950   -1.5340   -1.0560 n         1 MOL     -0.347108
     61 C19         6.5640   -0.1370   -1.3820 c3        1 MOL      0.002940
     62 C20         6.5570    0.8680   -0.2590 c         1 MOL      0.282088
     63 O10         6.9460    1.9840   -0.4910 o         1 MOL     -0.442105
     64 C21         5.8550    0.4220   -2.6720 c3        1 MOL     -0.364864
     65 C22         4.5300    1.1140   -2.3280 c         1 MOL      0.694706
     66 N7          4.3090    2.2100   -3.0570 n         1 MOL     -0.683607
     67 O11         3.8130    0.8720   -1.3740 o         1 MOL     -0.796696
     68 H28         5.2910   -1.8780   -1.3320 hn        1 MOL      0.269116
     69 H29         7.6440   -0.0720   -1.5310 h1        1 MOL      0.130564
     70 H30         5.6350   -0.3930   -3.3610 hc        1 MOL      0.148909
     71 H31         6.4850    1.1470   -3.1750 hc        1 MOL      0.148909
     72 H32         5.0160    2.5430   -3.7050 hn        1 MOL      0.329950
     73 H33         3.5200    2.8300   -2.9700 hn        1 MOL      0.329950
     74 N8          6.1210    0.4680    0.9060 n         1 MOL      0.004137
     75 C23         5.9790    1.2210    2.1700 c3        1 MOL     -0.475213
     76 C24         5.0220    2.3710    2.1670 c         1 MOL      0.814242
     77 O12         5.1590    3.2290    2.9860 o         1 MOL     -0.580806
     78 H34         5.8110   -0.4980    0.9710 hn        1 MOL      0.260650
     79 H35         6.9390    1.7120    2.3150 h1        1 MOL      0.152961
     80 H36         5.6170    0.5800    2.9760 h1        1 MOL      0.152961
     81 N9          3.9320    2.2060    1.3790 n         1 MOL     -0.758753
     82 C25         2.7090    3.1090    1.4070 c3        1 MOL      0.687079
     83 C26         1.4380    2.2670    1.2860 c         1 MOL      0.143112
     84 O13         1.3560    1.1500    0.7850 o         1 MOL     -0.543269
     85 C27         2.8040    4.1260    0.2270 c3        1 MOL     -0.338618
     86 C28         3.8450    5.2470    0.3600 ca        1 MOL      0.025708
     87 C29         5.1530    5.0730   -0.2300 ca        1 MOL     -0.186015
     88 C30         3.4680    6.4310    1.0070 ca        1 MOL     -0.186015
     89 C31         6.0740    6.1530   -0.0780 ca        1 MOL     -0.154017
     90 C32         4.4130    7.4620    1.1300 ca        1 MOL     -0.154017
     91 C33         5.6990    7.3430    0.6200 ca        1 MOL      0.230719
     92 O14         6.6150    8.3300    0.7520 oh        1 MOL     -0.442395
     93 H37         4.1050    1.5660    0.6240 hn        1 MOL      0.469145
     94 H38         2.6550    3.6030    2.3800 h1        1 MOL     -0.074639
     95 H39         1.7870    4.4850    0.0410 hc        1 MOL      0.093763
     96 H40         3.1070    3.5180   -0.6280 hc        1 MOL      0.093763
     97 H41         5.4930    4.1270   -0.6200 ha        1 MOL      0.130425
     98 H42         2.4640    6.6450    1.3500 ha        1 MOL      0.130425
     99 H43         7.0430    6.0790   -0.5640 ha        1 MOL      0.117242
    100 H44         3.9310    8.3290    1.5640 ha        1 MOL      0.117242
    101 H45         6.3130    9.0460    1.3080 ho        1 MOL      0.343870
    102 N10         0.3000    2.9890    1.5200 n         1 MOL     -0.025130
    103 C34        -1.0680    2.4860    1.2800 c3        1 MOL     -0.593634
    104 C35        -1.9110    3.6580    0.8470 c         1 MOL      0.495062
    105 O15        -1.8300    4.8230    1.1610 o         1 MOL     -0.537041
    106 C36        -1.7650    1.9520    2.5130 c3        1 MOL      0.099000
    107 C37        -1.7700    2.9280    3.6750 c3        1 MOL     -0.071756
    108 C38        -1.2780    0.5240    2.8490 c3        1 MOL     -0.221072
    109 C39        -2.2480    2.1850    4.9780 c3        1 MOL     -0.183870
    110 H46         0.3750    3.9340    1.8750 hn        1 MOL      0.188762
    111 H47        -0.9420    1.7880    0.4610 h1        1 MOL      0.297580
    112 H48        -2.7950    1.8100    2.1980 hc        1 MOL      0.015881
    113 H49        -2.4540    3.7610    3.5240 hc        1 MOL      0.074560
    114 H50        -0.7450    3.2050    3.9090 hc        1 MOL      0.074560
    115 H51        -1.0910   -0.1120    1.9870 hc        1 MOL      0.130003
    116 H52        -0.4380    0.5930    3.5460 hc        1 MOL      0.130003
    117 H53        -2.0740   -0.0760    3.2760 hc        1 MOL      0.130003
    118 H54        -1.6900    1.3180    5.3210 hc        1 MOL      0.039500
    119 H55        -2.2460    3.0010    5.7030 hc        1 MOL      0.039500
    120 H56        -3.2820    1.8960    4.7930 hc        1 MOL      0.039500
    121 N11        -2.7470    3.2610   -0.0820 n         1 MOL     -0.104953
    122 C40        -3.7200    3.9880   -0.8390 c3        1 MOL      0.025913
    123 C41        -5.1530    3.5310   -0.3850 c         1 MOL      0.427394
    124 O16        -5.3750    2.3700   -0.0150 o         1 MOL     -0.478451
    125 C42        -3.5320    3.8170   -2.3280 c3        1 MOL     -0.113867
    126 O17        -4.0300    2.5620   -2.7410 oh        1 MOL     -0.449726
    127 H57        -2.6260    2.3300   -0.4560 hn        1 MOL      0.171313
    128 H58        -3.6130    5.0240   -0.5220 h1        1 MOL      0.056704
    129 H59        -2.4560    3.8140   -2.4930 h1        1 MOL      0.093373
    130 H60        -3.9690    4.6290   -2.9120 h1        1 MOL      0.093373
    131 H61        -4.1810    2.5480   -3.6960 ho        1 MOL      0.376243
    132 N12        -6.2030    4.2660   -0.6590 n         1 MOL     -0.399844
    133 C43        -7.6460    3.8250   -0.4880 c3        1 MOL      0.100326
    134 C44        -7.9560    2.4880   -1.1980 c         1 MOL      0.424057
    135 O18        -8.7320    1.7190   -0.6030 o         1 MOL     -0.531119
    136 C45        -8.5170    4.9300   -1.1080 c3        1 MOL     -0.303251
    137 H62        -5.9590    5.1880   -0.9990 hn        1 MOL      0.265334
    138 H63        -7.8020    3.7550    0.5870 h1        1 MOL      0.118652
    139 H64        -8.6000    5.8020   -0.4650 hc        1 MOL      0.099219
    140 H65        -8.2000    5.1500   -2.1230 hc        1 MOL      0.099219
    141 H66        -9.5630    4.6260   -1.1020 hc        1 MOL      0.099219
    142 N13        -7.2540    2.1420   -2.2500 n         1 MOL     -0.282978
    143 C46        -7.5070    0.8530   -2.9770 c3        1 MOL     -0.043850
    144 C47        -7.0230   -0.4570   -2.2880 c         1 MOL      0.426579
    145 O19        -7.4400   -1.5830   -2.6140 o         1 MOL     -0.508626
    146 C48        -6.8810    0.9040   -4.3630 c3        1 MOL     -0.216407
    147 H67        -6.5430    2.7570   -2.6150 hn        1 MOL      0.224528
    148 H68        -8.5790    0.6430   -3.0000 h1        1 MOL      0.131979
    149 H69        -7.1470    1.7830   -4.9640 hc        1 MOL      0.071228
    150 H70        -5.7990    0.8130   -4.3480 hc        1 MOL      0.071228
    151 H71        -7.2660    0.0810   -4.9610 hc        1 MOL      0.071228
    152 N14        -6.0970   -0.2090   -1.3400 n         1 MOL     -0.125648
    153 C49        -5.5710   -1.2340   -0.4180 c3        1 MOL     -0.137269
    154 C50        -6.5010   -1.2810    0.8500 c         1 MOL      0.525587
    155 O20        -6.9600   -2.3430    1.2560 o         1 MOL     -0.579603
    156 C51        -4.1360   -0.8970    0.0110 c3        1 MOL      0.036585
    157 C52        -3.2090   -0.8680   -1.1880 c3        1 MOL      0.250942
    158 C53        -1.7150   -0.5440   -0.8910 c         1 MOL      0.638596
    159 O21        -0.9330   -1.3900   -0.3810 o         1 MOL     -0.748676
    160 O22        -1.1380    0.4980   -1.3970 o         1 MOL     -0.748676
    161 H72        -5.6780    0.7020   -1.2660 hn        1 MOL      0.183017
    162 H73        -5.5330   -2.2160   -0.8960 h1        1 MOL      0.091168
    163 H74        -3.7770   -1.6450    0.7210 hc        1 MOL     -0.027220
    164 H75        -4.1540    0.0520    0.5550 hc        1 MOL     -0.027220
    165 H76        -3.5340   -0.0830   -1.8860 hc        1 MOL     -0.093726
    166 H77        -3.2640   -1.7570   -1.8070 hc        1 MOL     -0.093726
    167 N15        -6.7350   -0.1370    1.4220 n         1 MOL     -0.187746
    168 C54        -7.5590   -0.0370    2.6860 c3        1 MOL     -0.241732
    169 H78        -6.9000   -0.0820    3.5530 h1        1 MOL      0.107251
    170 H79        -8.1020    0.9070    2.6930 h1        1 MOL      0.107251
    171 H80        -8.2670   -0.8640    2.7260 h1        1 MOL      0.107251
    172 H81        -6.2280    0.6740    1.1070 hn        1 MOL      0.220906
    173 Ca1         1.3240   -0.4150   -1.3540 Ca        1 MOL      1.853970
    174 O23        -0.0040   -1.7420   -3.4080 oh        1 MOL     -0.844321
    175 H82         0.0440   -2.6870   -3.5450 ho        1 MOL      0.419670
    176 H83        -0.8300   -1.4870   -3.8290 ho        1 MOL      0.419670
    177 O24         1.1590    2.1580   -2.3940 oh        1 MOL     -0.844321
    178 H84         0.8000    2.9960   -2.1190 ho        1 MOL      0.419670
    179 H85         1.0310    2.1400   -3.3430 ho        1 MOL      0.419670
@<TRIPOS>BOND
     1    1    2 1   
     2    1    4 1   
     3    1    5 1   
     4    1    6 1   
     5    2    3 2   
     6    2    7 1   
     7    7    8 1   
     8    7   15 1   
     9    8    9 1   
    10    8   11 1   
    11    8   16 1   
    12    9   10 2   
    13    9   19 1   
    14   11   12 1   
    15   11   17 1   
    16   11   18 1   
    17   12   13 1   
    18   12   14 1   
    19   19   20 1   
    20   19   28 1   
    21   20   21 1   
    22   20   23 1   
    23   20   29 1   
    24   21   22 2   
    25   21   41 1   
    26   23   24 1   
    27   23   30 1   
    28   23   31 1   
    29   24   25 1   
    30   24   32 1   
    31   24   33 1   
    32   25   26 1   
    33   25   34 1   
    34   25   35 1   
    35   26   27 1   
    36   26   36 1   
    37   26   37 1   
    38   27   38 1   
    39   27   39 1   
    40   27   40 1   
    41   41   42 1   
    42   41   49 1   
    43   42   43 1   
    44   42   45 1   
    45   42   50 1   
    46   43   44 2   
    47   43   53 1   
    48   45   46 1   
    49   45   51 1   
    50   45   52 1   
    51   46   47 1   
    52   46   48 1   
    53   53   54 1   
    54   53   57 1   
    55   54   55 1   
    56   54   58 1   
    57   54   59 1   
    58   55   56 2   
    59   55   60 1   
    60   60   61 1   
    61   60   68 1   
    62   61   62 1   
    63   61   64 1   
    64   61   69 1   
    65   62   63 2   
    66   62   74 1   
    67   64   65 1   
    68   64   70 1   
    69   64   71 1   
    70   65   66 1   
    71   65   67 2   
    72   66   72 1   
    73   66   73 1   
    74   74   75 1   
    75   74   78 1   
    76   75   76 1   
    77   75   79 1   
    78   75   80 1   
    79   76   77 2   
    80   76   81 1   
    81   81   82 1   
    82   81   93 1   
    83   82   83 1   
    84   82   85 1   
    85   82   94 1   
    86   83   84 2   
    87   83  102 1   
    88   85   86 1   
    89   85   95 1   
    90   85   96 1   
    91   86   87 ar  
    92   86   88 ar  
    93   87   89 ar  
    94   87   97 1   
    95   88   90 ar  
    96   88   98 1   
    97   89   91 ar  
    98   89   99 1   
    99   90   91 ar  
   100   90  100 1   
   101   91   92 1   
   102   92  101 1   
   103  102  103 1   
   104  102  110 1   
   105  103  104 1   
   106  103  106 1   
   107  103  111 1   
   108  104  105 2   
   109  104  121 1   
   110  106  107 1   
   111  106  108 1   
   112  106  112 1   
   113  107  109 1   
   114  107  113 1   
   115  107  114 1   
   116  108  115 1   
   117  108  116 1   
   118  108  117 1   
   119  109  118 1   
   120  109  119 1   
   121  109  120 1   
   122  121  122 1   
   123  121  127 1   
   124  122  123 1   
   125  122  125 1   
   126  122  128 1   
   127  123  124 2   
   128  123  132 1   
   129  125  126 1   
   130  125  129 1   
   131  125  130 1   
   132  126  131 1   
   133  132  133 1   
   134  132  137 1   
   135  133  134 1   
   136  133  136 1   
   137  133  138 1   
   138  134  135 2   
   139  134  142 1   
   140  136  139 1   
   141  136  140 1   
   142  136  141 1   
   143  142  143 1   
   144  142  147 1   
   145  143  144 1   
   146  143  146 1   
   147  143  148 1   
   148  144  145 2   
   149  144  152 1   
   150  146  149 1   
   151  146  150 1   
   152  146  151 1   
   153  152  153 1   
   154  152  161 1   
   155  153  154 1   
   156  153  156 1   
   157  153  162 1   
   158  154  155 2   
   159  154  167 1   
   160  156  157 1   
   161  156  163 1   
   162  156  164 1   
   163  157  158 1   
   164  157  165 1   
   165  157  166 1   
   166  158  159 1   
   167  158  160 1   
   168  167  168 1   
   169  167  172 1   
   170  168  169 1   
   171  168  170 1   
   172  168  171 1   
   173  174  175 1   
   174  174  176 1   
   175  177  178 1   
   176  177  179 1   
@<TRIPOS>SUBSTRUCTURE
     1 MOL         1 TEMP              0 ****  ****    0 ROOT
