@<TRIPOS>MOLECULE
MOL
  189   185     1     0     0
SMALL
resp


@<TRIPOS>ATOM
      1 C1         -0.3480    0.7720    6.7160 c3        1 MOL     -0.244907
      2 C2         -0.6290    0.8970    5.2070 c         1 MOL      0.732512
      3 O1          0.2650    1.2590    4.4500 o         1 MOL     -0.623214
      4 H1          0.7080    0.9640    6.9050 hc        1 MOL      0.061310
      5 H2         -0.9520    1.4990    7.2600 hc        1 MOL      0.061310
      6 H3         -0.6000   -0.2330    7.0510 hc        1 MOL      0.061310
      7 N1         -1.8560    0.6130    4.7540 n         1 MOL     -0.555618
      8 C3         -2.2930    0.7680    3.3880 c3        1 MOL      0.044405
      9 C4         -2.5650    2.2450    3.1350 c         1 MOL      0.458077
     10 O2         -3.3820    2.9250    3.7140 o         1 MOL     -0.551743
     11 C5         -3.5650   -0.1210    3.1300 c3        1 MOL     -0.098363
     12 C6         -4.0970    0.0160    1.6710 c         1 MOL      0.735954
     13 O3         -5.2760   -0.3950    1.4260 o         1 MOL     -0.714315
     14 O4         -3.3920    0.5990    0.8320 o         1 MOL     -0.714315
     15 H4         -2.4910    0.1690    5.4050 hn        1 MOL      0.303167
     16 H5         -1.5540    0.3130    2.7350 h1        1 MOL      0.064376
     17 H6         -4.3770    0.0660    3.8430 hc        1 MOL      0.028748
     18 H7         -3.3030   -1.1580    3.3090 hc        1 MOL      0.028748
     19 N2         -1.7480    2.8930    2.2750 n         1 MOL     -0.080302
     20 C7         -1.7370    4.3520    1.9900 c3        1 MOL     -0.192692
     21 C8         -2.8640    4.8800    1.2400 c         1 MOL      0.644844
     22 O5         -3.0840    6.0990    1.3410 o         1 MOL     -0.581961
     23 C9         -0.3260    4.7840    1.5910 c3        1 MOL     -0.129726
     24 C10        -0.0620    4.9370    0.0730 c3        1 MOL      0.117454
     25 C11         1.4170    4.9670   -0.3490 c3        1 MOL      0.008267
     26 C12         1.5800    5.4050   -1.7950 c3        1 MOL     -0.218283
     27 N3          2.9350    5.1650   -2.3200 n4        1 MOL     -0.185171
     28 H8         -1.0740    2.3110    1.8010 hn        1 MOL      0.177866
     29 H9         -1.8760    4.8260    2.9580 h1        1 MOL      0.124554
     30 H10         0.3720    4.0890    2.0530 hc        1 MOL      0.075619
     31 H11        -0.1290    5.7740    1.9910 hc        1 MOL      0.075619
     32 H12        -0.5990    5.7940   -0.3300 hc        1 MOL     -0.016675
     33 H13        -0.5160    4.0950   -0.4540 hc        1 MOL     -0.016675
     34 H14         1.7670    3.9390   -0.3020 hc        1 MOL      0.019109
     35 H15         1.9750    5.6250    0.3210 hc        1 MOL      0.019109
     36 H16         1.4260    6.4840   -1.7450 hx        1 MOL      0.162074
     37 H17         0.7950    4.9060   -2.3660 hx        1 MOL      0.162074
     38 H18         3.1480    4.1680   -2.3450 hn        1 MOL      0.249685
     39 H19         3.1360    5.6430   -3.1880 hn        1 MOL      0.249685
     40 H20         3.6510    5.4220   -1.6540 hn        1 MOL      0.249685
     41 N4         -3.5870    3.9920    0.5280 n         1 MOL     -0.466927
     42 C13        -4.7170    4.3740   -0.3750 c3        1 MOL      0.073528
     43 C14        -5.9800    3.4920   -0.2850 c         1 MOL      0.426757
     44 O6         -6.8710    3.6480   -1.1380 o         1 MOL     -0.531406
     45 C15        -4.1870    4.5020   -1.8540 c3        1 MOL     -0.239864
     46 C16        -3.3130    3.3250   -2.4030 c         1 MOL      0.867025
     47 O7         -2.6180    3.5170   -3.4340 o         1 MOL     -0.747328
     48 O8         -3.3180    2.2190   -1.8320 o         1 MOL     -0.747328
     49 H21        -3.2510    3.0380    0.5690 hn        1 MOL      0.158479
     50 H22        -5.0440    5.3460   -0.0150 h1        1 MOL      0.100860
     51 H23        -3.5540    5.3860   -1.8440 hc        1 MOL      0.062251
     52 H24        -4.9890    4.7030   -2.5670 hc        1 MOL      0.062251
     53 N5         -6.0280    2.5100    0.6080 n         1 MOL     -0.183295
     54 C17        -7.2850    1.8080    0.9590 c3        1 MOL     -0.389148
     55 C18        -7.7710    0.7070   -0.0480 c         1 MOL      0.594728
     56 O9         -8.8980    0.1840    0.1110 o         1 MOL     -0.566788
     57 H25        -5.2380    2.3350    1.2150 hn        1 MOL      0.243206
     58 H26        -8.0730    2.5500    0.9780 h1        1 MOL      0.168807
     59 H27        -7.1900    1.2840    1.9110 h1        1 MOL      0.168807
     60 N6         -6.9500    0.3620   -1.0600 n         1 MOL     -0.288834
     61 C19        -7.2550   -0.7340   -1.9280 c3        1 MOL     -0.186447
     62 C20        -7.2340   -2.0960   -1.2360 c         1 MOL      0.509002
     63 O10        -7.6130   -3.1000   -1.8390 o         1 MOL     -0.557795
     64 C21        -6.4070   -0.6410   -3.2590 c3        1 MOL     -0.069184
     65 C22        -4.9050   -0.5200   -3.0510 c         1 MOL      0.682095
     66 O11        -4.1400   -0.0570   -3.9780 o         1 MOL     -0.622040
     67 O12        -4.3370   -0.9970   -2.0400 o         1 MOL     -0.622040
     68 H28        -6.0230    0.7490   -1.0370 hn        1 MOL      0.280826
     69 H29        -8.2710   -0.5460   -2.2600 h1        1 MOL      0.146744
     70 H30        -6.8020    0.2060   -3.8210 hc        1 MOL      0.058050
     71 H31        -6.5910   -1.4710   -3.9440 hc        1 MOL      0.058050
     72 N7         -6.7940   -2.1850    0.0100 n         1 MOL     -0.193080
     73 C23        -6.6060   -3.4860    0.6990 c3        1 MOL     -0.181138
     74 C24        -5.3440   -4.2490    0.2240 c         1 MOL      0.541374
     75 O13        -5.3380   -5.4340    0.3190 o         1 MOL     -0.536955
     76 H32        -6.2690   -1.4280    0.4150 hn        1 MOL      0.241013
     77 H33        -7.4950   -4.0890    0.5600 h1        1 MOL      0.103280
     78 H34        -6.5130   -3.4260    1.7910 h1        1 MOL      0.103280
     79 N8         -4.3650   -3.5580   -0.4180 n         1 MOL     -0.080718
     80 C25        -3.1110   -4.1560   -0.8080 c3        1 MOL     -0.369394
     81 C26        -1.9690   -3.2780   -0.3130 c         1 MOL      0.647710
     82 O14        -2.0990   -2.0730   -0.2280 o         1 MOL     -0.617265
     83 C27        -3.0070   -4.4700   -2.3040 c3        1 MOL      0.541562
     84 C28        -4.1180   -5.5110   -2.5980 c3        1 MOL     -0.517311
     85 O15        -3.1840   -3.2820   -3.0580 oh        1 MOL     -0.561150
     86 H35        -4.3680   -2.5560   -0.4890 hn        1 MOL      0.126510
     87 H36        -2.9710   -5.0870   -0.2670 h1        1 MOL      0.100751
     88 H37        -2.0360   -4.8900   -2.5690 h1        1 MOL     -0.011984
     89 H38        -3.8020   -2.7920   -2.5230 ho        1 MOL      0.313566
     90 H39        -3.7560   -6.0190   -3.4980 hc        1 MOL      0.135503
     91 H40        -4.2540   -6.1690   -1.7490 hc        1 MOL      0.135503
     92 H41        -5.0650   -4.9980   -2.7540 hc        1 MOL      0.135503
     93 N9         -0.7390   -3.9380   -0.0930 n         1 MOL     -0.496563
     94 C29         0.4970   -3.4210    0.4480 c3        1 MOL      0.130359
     95 C30         1.6930   -3.5800   -0.5350 c         1 MOL      0.377095
     96 O16         2.0750   -4.6830   -0.9850 o         1 MOL     -0.517657
     97 C31         0.6620   -4.1070    1.8560 c3        1 MOL     -0.035447
     98 C32        -0.1790   -3.3970    2.9730 c3        1 MOL      0.187930
     99 C33         2.0940   -4.3510    2.2160 c3        1 MOL      0.059484
    100 C34         0.1440   -3.5660    4.4410 c3        1 MOL     -0.119576
    101 H42        -0.8140   -4.9370   -0.1520 hn        1 MOL      0.271294
    102 H43         0.3620   -2.3440    0.5790 h1        1 MOL      0.040188
    103 H44         0.2850   -5.1320    1.8210 hc        1 MOL      0.042205
    104 H45        -1.1780   -3.8030    2.8660 hc        1 MOL     -0.040793
    105 H46        -0.1440   -2.3320    2.7190 hc        1 MOL     -0.040793
    106 H47         2.5680   -4.9680    1.4550 hc        1 MOL     -0.035897
    107 H48         2.7080   -3.4510    2.3010 hc        1 MOL     -0.035897
    108 H49         2.2360   -4.8410    3.1740 hc        1 MOL     -0.035897
    109 H50         0.0640   -4.6170    4.7290 hc        1 MOL      0.025122
    110 H51         1.0930   -3.0630    4.6190 hc        1 MOL      0.025122
    111 H52        -0.6090   -3.1140    5.0840 hc        1 MOL      0.025122
    112 N10         2.4480   -2.5070   -0.8070 n         1 MOL     -0.185888
    113 C35         3.6570   -2.4200   -1.7200 c3        1 MOL     -0.009260
    114 C36         4.9560   -2.2860   -0.9420 c         1 MOL      0.428775
    115 O17         4.9870   -2.2030    0.2890 o         1 MOL     -0.387050
    116 C37         3.5220   -1.3340   -2.7920 c3        1 MOL      0.276877
    117 C38         2.4240   -1.6530   -3.8180 c3        1 MOL     -0.636433
    118 O18         3.0580   -0.1820   -2.1880 oh        1 MOL     -0.618824
    119 H53         2.1180   -1.6220   -0.4440 hn        1 MOL      0.219157
    120 H54         3.7270   -3.3510   -2.2900 h1        1 MOL      0.070202
    121 H55         4.5050   -1.1800   -3.2470 h1        1 MOL      0.015853
    122 H56         2.1860   -0.3370   -1.8080 ho        1 MOL      0.369648
    123 H57         1.4120   -1.5700   -3.4360 hc        1 MOL      0.179696
    124 H58         2.4020   -0.8920   -4.6110 hc        1 MOL      0.179696
    125 H59         2.5390   -2.6340   -4.2860 hc        1 MOL      0.179696
    126 N11         6.1460   -2.2620   -1.5930 n         1 MOL     -0.255991
    127 C39         7.4730   -2.3550   -0.9740 c3        1 MOL     -0.349634
    128 C40         7.6300   -1.2120    0.0510 c         1 MOL      0.517586
    129 O19         7.8700   -1.4010    1.2410 o         1 MOL     -0.465256
    130 C41         8.6110   -2.3940   -2.0440 c3        1 MOL      0.395765
    131 C42         8.6280   -3.6980   -2.8610 c3        1 MOL     -0.460788
    132 O20         8.5910   -1.4170   -3.0490 oh        1 MOL     -0.615474
    133 H60         6.1000   -2.2050   -2.6000 hn        1 MOL      0.176033
    134 H61         7.5390   -3.3350   -0.5220 h1        1 MOL      0.193593
    135 H62         9.4920   -2.2820   -1.4120 h1        1 MOL      0.067722
    136 H63         7.8400   -1.6580   -3.5980 ho        1 MOL      0.391418
    137 H64         9.2650   -3.5550   -3.7370 hc        1 MOL      0.133091
    138 H65         9.0140   -4.5080   -2.2400 hc        1 MOL      0.133091
    139 H66         7.6310   -3.8970   -3.2420 hc        1 MOL      0.133091
    140 N12         7.2940    0.0400   -0.3280 n         1 MOL     -0.371205
    141 C43         7.2460    1.1480    0.6550 c3        1 MOL     -0.000681
    142 C44         6.2300    0.9670    1.7890 c         1 MOL      0.313511
    143 O21         6.4510    1.2290    2.9790 o         1 MOL     -0.462075
    144 C45         6.8560    2.4470   -0.0810 c3        1 MOL     -0.032848
    145 C46         7.8670    2.8690   -1.1860 c3        1 MOL     -0.148744
    146 C47         7.4240    4.3060   -1.6470 c3        1 MOL     -0.316386
    147 C48         8.4600    4.8760   -2.6000 c3        1 MOL     -0.297550
    148 N13         8.3790    4.3200   -3.9670 n4        1 MOL     -0.085381
    149 H67         7.0920    0.2380   -1.3030 hn        1 MOL      0.229342
    150 H68         8.2390    1.3360    1.0440 h1        1 MOL      0.113868
    151 H69         6.7300    3.2960    0.5850 hc        1 MOL      0.046028
    152 H70         5.8950    2.2880   -0.5770 hc        1 MOL      0.046028
    153 H71         7.9670    2.1890   -2.0320 hc        1 MOL      0.112836
    154 H72         8.8490    2.9830   -0.7300 hc        1 MOL      0.112836
    155 H73         7.3630    4.8760   -0.7230 hc        1 MOL      0.129088
    156 H74         6.4870    4.4010   -2.1950 hc        1 MOL      0.129088
    157 H75         9.4280    4.6780   -2.1670 hx        1 MOL      0.212406
    158 H76         8.2550    5.9390   -2.7560 hx        1 MOL      0.212406
    159 H77         8.8620    3.4340   -4.0380 hn        1 MOL      0.213053
    160 H78         7.4140    4.2170   -4.2270 hn        1 MOL      0.213053
    161 H79         8.8090    4.8890   -4.6800 hn        1 MOL      0.213053
    162 N14         5.0960    0.2960    1.4680 n         1 MOL     -0.083167
    163 C49         4.0360    0.0680    2.4820 c3        1 MOL     -0.349340
    164 C50         4.5320   -1.0030    3.5160 c         1 MOL      0.515011
    165 O22         4.2640   -0.8510    4.7280 o         1 MOL     -0.550980
    166 C51         2.6950   -0.3380    1.9460 c3        1 MOL      0.336408
    167 C52         2.0750    0.9060    1.2150 c3        1 MOL      0.077542
    168 C53         0.7960    0.6050    0.4540 c         1 MOL      0.814351
    169 O23         0.8130   -0.1450   -0.5880 o         1 MOL     -0.726741
    170 O24        -0.2940    1.0710    0.7520 o         1 MOL     -0.726741
    171 H80         4.9440   -0.0230    0.5300 hn        1 MOL      0.174111
    172 H81         3.9710    1.0330    2.9760 h1        1 MOL      0.174540
    173 H82         1.9750   -0.6210    2.7040 hc        1 MOL     -0.057420
    174 H83         2.8820   -1.1650    1.2620 hc        1 MOL     -0.057420
    175 H84         2.8160    1.2290    0.4950 hc        1 MOL     -0.110938
    176 H85         1.8080    1.7260    1.8900 hc        1 MOL     -0.110938
    177 N15         5.3550   -1.9670    3.0730 n         1 MOL      0.012250
    178 C54         5.9540   -2.9140    3.9770 c3        1 MOL     -0.404712
    179 H86         7.0380   -2.8020    3.9520 h1        1 MOL      0.131059
    180 H87         5.5930   -2.7290    4.9890 h1        1 MOL      0.131059
    181 H88         5.6870   -3.9260    3.6740 h1        1 MOL      0.131059
    182 H89         5.6120   -1.9470    2.0900 hn        1 MOL      0.118663
    183 Ca1        -1.8150    0.3180   -1.2610 Ca        1 MOL      1.756111
    184 O25        -1.1200   -1.4870   -3.0970 oh        1 MOL     -0.928850
    185 H90        -1.8410   -2.1140   -3.2060 ho        1 MOL      0.422302
    186 H91        -1.0420   -1.0490   -3.9390 ho        1 MOL      0.422302
    187 O26        -0.5050    1.9800   -2.8670 oh        1 MOL     -0.928850
    188 H92         0.3040    2.1900   -3.3260 ho        1 MOL      0.422302
    189 H93        -1.1780    2.4580   -3.3540 ho        1 MOL      0.422302
@<TRIPOS>BOND
     1    1    2 1   
     2    1    4 1   
     3    1    5 1   
     4    1    6 1   
     5    2    3 2   
     6    2    7 1   
     7    7    8 1   
     8    7   15 1   
     9    8    9 1   
    10    8   11 1   
    11    8   16 1   
    12    9   10 2   
    13    9   19 1   
    14   11   12 1   
    15   11   17 1   
    16   11   18 1   
    17   12   13 1   
    18   12   14 1   
    19   19   20 1   
    20   19   28 1   
    21   20   21 1   
    22   20   23 1   
    23   20   29 1   
    24   21   22 2   
    25   21   41 1   
    26   23   24 1   
    27   23   30 1   
    28   23   31 1   
    29   24   25 1   
    30   24   32 1   
    31   24   33 1   
    32   25   26 1   
    33   25   34 1   
    34   25   35 1   
    35   26   27 1   
    36   26   36 1   
    37   26   37 1   
    38   27   38 1   
    39   27   39 1   
    40   27   40 1   
    41   41   42 1   
    42   41   49 1   
    43   42   43 1   
    44   42   45 1   
    45   42   50 1   
    46   43   44 2   
    47   43   53 1   
    48   45   46 1   
    49   45   51 1   
    50   45   52 1   
    51   46   47 1   
    52   46   48 1   
    53   53   54 1   
    54   53   57 1   
    55   54   55 1   
    56   54   58 1   
    57   54   59 1   
    58   55   56 2   
    59   55   60 1   
    60   60   61 1   
    61   60   68 1   
    62   61   62 1   
    63   61   64 1   
    64   61   69 1   
    65   62   63 2   
    66   62   72 1   
    67   64   65 1   
    68   64   70 1   
    69   64   71 1   
    70   65   66 1   
    71   65   67 1   
    72   72   73 1   
    73   72   76 1   
    74   73   74 1   
    75   73   77 1   
    76   73   78 1   
    77   74   75 2   
    78   74   79 1   
    79   79   80 1   
    80   79   86 1   
    81   80   81 1   
    82   80   83 1   
    83   80   87 1   
    84   81   82 2   
    85   81   93 1   
    86   83   84 1   
    87   83   85 1   
    88   83   88 1   
    89   84   90 1   
    90   84   91 1   
    91   84   92 1   
    92   85   89 1   
    93   93   94 1   
    94   93  101 1   
    95   94   95 1   
    96   94   97 1   
    97   94  102 1   
    98   95   96 2   
    99   95  112 1   
   100   97   98 1   
   101   97   99 1   
   102   97  103 1   
   103   98  100 1   
   104   98  104 1   
   105   98  105 1   
   106   99  106 1   
   107   99  107 1   
   108   99  108 1   
   109  100  109 1   
   110  100  110 1   
   111  100  111 1   
   112  112  113 1   
   113  112  119 1   
   114  113  114 1   
   115  113  116 1   
   116  113  120 1   
   117  114  115 2   
   118  114  126 1   
   119  116  117 1   
   120  116  118 1   
   121  116  121 1   
   122  117  123 1   
   123  117  124 1   
   124  117  125 1   
   125  118  122 1   
   126  126  127 1   
   127  126  133 1   
   128  127  128 1   
   129  127  130 1   
   130  127  134 1   
   131  128  129 2   
   132  128  140 1   
   133  130  131 1   
   134  130  132 1   
   135  130  135 1   
   136  131  137 1   
   137  131  138 1   
   138  131  139 1   
   139  132  136 1   
   140  140  141 1   
   141  140  149 1   
   142  141  142 1   
   143  141  144 1   
   144  141  150 1   
   145  142  143 2   
   146  142  162 1   
   147  144  145 1   
   148  144  151 1   
   149  144  152 1   
   150  145  146 1   
   151  145  153 1   
   152  145  154 1   
   153  146  147 1   
   154  146  155 1   
   155  146  156 1   
   156  147  148 1   
   157  147  157 1   
   158  147  158 1   
   159  148  159 1   
   160  148  160 1   
   161  148  161 1   
   162  162  163 1   
   163  162  171 1   
   164  163  164 1   
   165  163  166 1   
   166  163  172 1   
   167  164  165 2   
   168  164  177 1   
   169  166  167 1   
   170  166  173 1   
   171  166  174 1   
   172  167  168 1   
   173  167  175 1   
   174  167  176 1   
   175  168  169 1   
   176  168  170 1   
   177  177  178 1   
   178  177  182 1   
   179  178  179 1   
   180  178  180 1   
   181  178  181 1   
   182  184  185 1   
   183  184  186 1   
   184  187  188 1   
   185  187  189 1   
@<TRIPOS>SUBSTRUCTURE
     1 MOL         1 TEMP              0 ****  ****    0 ROOT
