@<TRIPOS>MOLECULE
MOL
  175   173     1     0     0
SMALL
resp


@<TRIPOS>ATOM
      1 C1          0.0080    3.2460    6.0230 c3        1 MOL     -0.527803
      2 C2         -0.4660    3.5340    4.6140 c         1 MOL      0.772940
      3 O1          0.2960    4.0900    3.8330 o         1 MOL     -0.560332
      4 H1          0.5060    4.1280    6.4250 hc        1 MOL      0.127482
      5 H2         -0.8480    2.9960    6.6500 hc        1 MOL      0.127482
      6 H3          0.7060    2.4100    6.0080 hc        1 MOL      0.127482
      7 N1         -1.6920    3.1900    4.3390 n         1 MOL     -0.645572
      8 C3         -2.2150    3.0570    2.9610 c3        1 MOL      0.251249
      9 C4         -2.1350    4.3150    2.1150 c         1 MOL      0.338122
     10 O2         -2.3320    5.4540    2.6330 o         1 MOL     -0.562215
     11 C5         -3.7020    2.5360    3.0840 c3        1 MOL     -0.261080
     12 C6         -4.2270    1.8970    1.8410 c         1 MOL      0.809904
     13 O3         -3.5270    1.9110    0.8210 o         1 MOL     -0.737674
     14 O4         -5.2600    1.2390    1.8400 o         1 MOL     -0.737674
     15 H4         -2.3410    2.9380    5.0690 hn        1 MOL      0.327545
     16 H5         -1.6250    2.2500    2.5250 h1        1 MOL      0.036455
     17 H6         -4.3530    3.3520    3.4080 hc        1 MOL      0.048520
     18 H7         -3.8010    1.7740    3.8570 hc        1 MOL      0.048520
     19 N2         -1.9200    4.2750    0.8040 n         1 MOL     -0.170036
     20 C7         -1.9240    5.4840   -0.1150 c3        1 MOL      0.324064
     21 C8         -2.6980    5.2100   -1.4500 c         1 MOL      0.429683
     22 O5         -2.4240    5.8760   -2.4490 o         1 MOL     -0.548593
     23 C9         -0.4830    5.9120   -0.3650 c3        1 MOL     -0.222467
     24 H8         -1.5900    3.4010    0.4150 hn        1 MOL      0.224061
     25 H9         -2.4090    6.3190    0.3950 h1        1 MOL     -0.014190
     26 H10        -0.0020    6.2380    0.5510 hc        1 MOL      0.047221
     27 H11        -0.0280    5.0620   -0.8770 hc        1 MOL      0.047221
     28 H12        -0.5410    6.8060   -0.9890 hc        1 MOL      0.047221
     29 N3         -3.6510    4.2640   -1.5040 n         1 MOL     -0.303659
     30 C10        -4.3950    3.7790   -2.6350 c3        1 MOL      0.065465
     31 C11        -5.7360    3.0130   -2.2910 c         1 MOL      0.401255
     32 O6         -6.6950    2.9040   -3.1200 o         1 MOL     -0.545719
     33 C12        -3.5520    3.0800   -3.6370 c3        1 MOL     -0.035330
     34 C13        -3.0290    1.7050   -3.2000 c         1 MOL      0.613691
     35 O7         -1.9600    1.3710   -3.6950 o         1 MOL     -0.654005
     36 O8         -3.5240    1.1560   -2.1840 o         1 MOL     -0.654005
     37 H13        -3.7860    3.8850   -0.5690 hn        1 MOL      0.020426
     38 H14        -4.6390    4.7310   -3.0920 h1        1 MOL      0.049743
     39 H15        -2.7210    3.7300   -3.9140 hc        1 MOL      0.018350
     40 H16        -4.1370    2.9730   -4.5530 hc        1 MOL      0.018350
     41 N4         -5.9410    2.5320   -1.0410 n         1 MOL     -0.298036
     42 C14        -7.1030    1.8490   -0.5790 c3        1 MOL     -0.324990
     43 C15        -7.1800    0.3120   -0.9550 c         1 MOL      0.618840
     44 O9         -8.1660   -0.3110   -0.6220 o         1 MOL     -0.634148
     45 H17        -5.2230    2.6550   -0.3370 hn        1 MOL      0.336856
     46 H18        -8.0490    2.2640   -0.9290 h1        1 MOL      0.153010
     47 H19        -7.1060    1.9710    0.5050 h1        1 MOL      0.153010
     48 N5         -6.1690   -0.3500   -1.5350 n         1 MOL     -0.338383
     49 C16        -6.2130   -1.7150   -2.1110 c3        1 MOL     -0.010006
     50 C17        -6.2260   -2.9240   -1.0790 c         1 MOL      0.433115
     51 O10        -6.0220   -4.0620   -1.4630 o         1 MOL     -0.502485
     52 C18        -5.2190   -1.9700   -3.2860 c3        1 MOL     -0.061871
     53 C19        -3.7940   -2.0130   -2.7770 c         1 MOL      0.618698
     54 N6         -2.7860   -1.8790   -3.6510 n         1 MOL     -0.734320
     55 O11        -3.4860   -2.1040   -1.6070 o         1 MOL     -0.519805
     56 H20        -5.3670    0.2200   -1.7490 hn        1 MOL      0.230473
     57 H21        -7.2260   -1.7970   -2.5150 h1        1 MOL      0.092625
     58 H22        -5.2030   -1.1450   -4.0070 hc        1 MOL      0.026889
     59 H23        -5.6020   -2.8550   -3.7810 hc        1 MOL      0.026889
     60 H24        -2.9910   -1.4910   -4.5620 hn        1 MOL      0.358255
     61 H25        -1.8630   -1.8820   -3.2430 hn        1 MOL      0.358255
     62 N7         -6.3760   -2.7160    0.2320 n         1 MOL     -0.285565
     63 C20        -6.3270   -3.7870    1.3090 c3        1 MOL     -0.240182
     64 C21        -4.9810   -4.4730    1.4940 c         1 MOL      0.641975
     65 O12        -4.9270   -5.4260    2.2500 o         1 MOL     -0.603849
     66 H26        -6.5290   -1.7650    0.5390 hn        1 MOL      0.301102
     67 H27        -7.1300   -4.4680    1.0420 h1        1 MOL      0.114877
     68 H28        -6.5960   -3.2910    2.2390 h1        1 MOL      0.114877
     69 N8         -3.9230   -3.9740    0.8800 n         1 MOL     -0.286160
     70 C22        -2.5440   -4.6020    0.9460 c3        1 MOL     -0.144904
     71 C23        -1.3930   -3.5650    1.1860 c         1 MOL      0.665689
     72 O13        -1.4570   -2.5440    0.4830 o         1 MOL     -0.578887
     73 C24        -2.2350   -5.4290   -0.2730 c3        1 MOL      0.456658
     74 C25        -3.0580   -6.7910   -0.2480 c3        1 MOL     -0.442513
     75 O14        -2.5740   -4.7970   -1.4240 oh        1 MOL     -0.549433
     76 H29        -4.0960   -3.1740    0.2860 hn        1 MOL      0.107555
     77 H30        -2.4960   -5.3130    1.7700 h1        1 MOL      0.081626
     78 H31        -1.1590   -5.5450   -0.2290 h1        1 MOL     -0.028539
     79 H32        -2.6190   -3.8600   -1.2050 ho        1 MOL      0.331725
     80 H33        -2.7820   -7.4310   -1.0890 hc        1 MOL      0.108283
     81 H34        -2.7390   -7.3630    0.6230 hc        1 MOL      0.108283
     82 H35        -4.1150   -6.5430   -0.2520 hc        1 MOL      0.108283
     83 N9         -0.3130   -3.8790    1.9900 n         1 MOL     -0.791369
     84 C26         0.8150   -2.9110    2.0060 c3        1 MOL      0.032027
     85 C27         1.6390   -3.1470    0.7070 c         1 MOL      0.754759
     86 O15         2.0340   -4.2860    0.3980 o         1 MOL     -0.629754
     87 C28         1.6900   -3.1530    3.2260 c3        1 MOL      0.078665
     88 C29         0.9590   -3.3680    4.6080 c3        1 MOL      0.291480
     89 C30         2.7070   -2.0260    3.3570 c3        1 MOL     -0.498257
     90 C31         1.8550   -3.3450    5.8340 c3        1 MOL     -0.180992
     91 H36        -0.1980   -4.8300    2.3090 hn        1 MOL      0.394098
     92 H37         0.4460   -1.8900    2.1050 h1        1 MOL      0.084861
     93 H38         2.2140   -4.1010    3.0430 hc        1 MOL     -0.026773
     94 H39         0.3740   -4.2740    4.5110 hc        1 MOL     -0.068533
     95 H40         0.2970   -2.5240    4.8060 hc        1 MOL     -0.068533
     96 H41         3.5470   -2.2940    3.9900 hc        1 MOL      0.115185
     97 H42         3.0610   -1.7130    2.3720 hc        1 MOL      0.115185
     98 H43         2.2570   -1.0940    3.6970 hc        1 MOL      0.115185
     99 H44         2.3370   -2.3790    5.9800 hc        1 MOL      0.031371
    100 H45         1.2060   -3.6950    6.6340 hc        1 MOL      0.031371
    101 H46         2.6350   -4.0860    5.6770 hc        1 MOL      0.031371
    102 N10         1.8360   -2.1220   -0.1070 n         1 MOL     -0.390201
    103 C32         2.7450   -2.0790   -1.2690 c3        1 MOL      0.065778
    104 C33         4.1100   -1.5420   -0.8460 c         1 MOL      0.269865
    105 O16         4.2460   -0.9050    0.2000 o         1 MOL     -0.219825
    106 C34         2.1570   -1.1160   -2.3220 c3        1 MOL     -0.300107
    107 C35         0.6880   -1.3210   -2.8090 c         1 MOL      0.662025
    108 O17        -0.2340   -0.8290   -2.1110 o         1 MOL     -0.653299
    109 O18         0.4590   -1.9090   -3.9190 o         1 MOL     -0.653299
    110 H47         1.4380   -1.2500    0.2100 hn        1 MOL      0.222284
    111 H48         2.8880   -3.0240   -1.7730 h1        1 MOL      0.087600
    112 H49         2.7630   -1.2710   -3.2080 hc        1 MOL      0.098757
    113 H50         2.2150   -0.0890   -1.9670 hc        1 MOL      0.098757
    114 N11         5.1180   -1.6400   -1.6570 n         1 MOL     -0.470615
    115 C36         6.4670   -1.2660   -1.3810 c3        1 MOL      0.368976
    116 C37         6.6100    0.2530   -1.0400 c         1 MOL      0.228979
    117 O19         7.3610    0.5260   -0.0810 o         1 MOL     -0.488416
    118 C38         7.3340   -1.5840   -2.5690 c3        1 MOL     -0.463786
    119 C39         8.7460   -1.4870   -2.1380 ca        1 MOL      0.364626
    120 C40         9.3200   -2.4280   -1.1810 ca        1 MOL     -0.351656
    121 C41         9.5680   -0.6140   -2.8520 ca        1 MOL     -0.351656
    122 C42        10.7020   -2.3540   -0.9340 ca        1 MOL      0.031409
    123 C43        10.9140   -0.5400   -2.5640 ca        1 MOL      0.031409
    124 C44        11.5040   -1.4270   -1.6540 ca        1 MOL     -0.254641
    125 H51         4.9800   -2.2400   -2.4540 hn        1 MOL      0.305656
    126 H52         6.7000   -1.8750   -0.5050 h1        1 MOL      0.057834
    127 H53         7.2810   -0.9910   -3.4860 hc        1 MOL      0.121800
    128 H54         7.1390   -2.6140   -2.8800 hc        1 MOL      0.121800
    129 H55         8.7350   -3.1840   -0.6780 ha        1 MOL      0.162577
    130 H56         9.1260    0.1210   -3.5080 ha        1 MOL      0.162577
    131 H57        11.1490   -3.0310   -0.2230 ha        1 MOL      0.085070
    132 H58        11.5400    0.1460   -3.1070 ha        1 MOL      0.085070
    133 H59        12.5700   -1.4380   -1.4800 ha        1 MOL      0.124049
    134 N12         5.9620    1.2180   -1.7440 n         1 MOL     -0.025604
    135 C45         5.9390    2.6340   -1.3830 c3        1 MOL      0.033711
    136 C46         5.2270    2.8350    0.0020 c         1 MOL      0.272671
    137 O20         5.4050    3.9610    0.5430 o         1 MOL     -0.514759
    138 C47         5.2200    3.3420   -2.5130 c3        1 MOL     -0.160820
    139 C48         5.3610    2.4250   -3.6350 c3        1 MOL      0.262110
    140 C49         5.2700    1.1050   -3.0190 c3        1 MOL     -0.100275
    141 H60         6.9390    3.0250   -1.2400 h1        1 MOL      0.085138
    142 H61         4.1680    3.4630   -2.2670 hc        1 MOL      0.066921
    143 H62         5.6990    4.2860   -2.7430 hc        1 MOL      0.066921
    144 H63         4.6540    2.6770   -4.4180 hc        1 MOL     -0.046902
    145 H64         6.3380    2.4430   -4.1250 hc        1 MOL     -0.046902
    146 H65         4.2460    0.8120   -2.7960 h1        1 MOL      0.036516
    147 H66         5.7550    0.3890   -3.6970 h1        1 MOL      0.036516
    148 N13         4.5180    1.8600    0.5990 n         1 MOL     -0.051244
    149 C50         3.8400    2.0110    1.9010 c3        1 MOL     -0.152476
    150 C51         4.6410    1.2920    3.0050 c         1 MOL      0.420054
    151 O21         4.4950    1.5860    4.2270 o         1 MOL     -0.553476
    152 C52         2.3980    1.4710    1.8580 c3        1 MOL      0.112733
    153 C53         1.5890    2.0170    0.7040 c3        1 MOL      0.037742
    154 C54         0.2930    1.3510    0.4850 c         1 MOL      0.445049
    155 O22        -0.4900    1.9030   -0.3220 o         1 MOL     -0.632859
    156 O23         0.1040    0.2330    1.0170 o         1 MOL     -0.632859
    157 H67         4.6010    0.9190    0.2570 hn        1 MOL      0.038842
    158 H68         3.7760    3.0620    2.1530 h1        1 MOL      0.131510
    159 H69         1.8340    1.7500    2.7510 hc        1 MOL      0.003288
    160 H70         2.4130    0.3880    1.7110 hc        1 MOL      0.003288
    161 H71         2.1080    1.8900   -0.2440 hc        1 MOL      0.013429
    162 H72         1.2750    3.0400    0.8760 hc        1 MOL      0.013429
    163 N14         5.5760    0.3850    2.6440 n         1 MOL     -0.041356
    164 C55         6.5410   -0.1440    3.6050 c3        1 MOL     -0.307791
    165 H73         6.9150    0.6690    4.2280 h1        1 MOL      0.110292
    166 H74         6.0570   -0.8900    4.2350 h1        1 MOL      0.110292
    167 H75         7.3730   -0.6030    3.0710 h1        1 MOL      0.110292
    168 H76         5.5700    0.0230    1.7050 hn        1 MOL      0.090858
    169 Ca1        -2.1010   -0.0230   -0.5470 Ca        1 MOL      1.651260
    170 O24        -2.0900   -0.4210    2.6520 oh        1 MOL     -0.666774
    171 H77        -1.1760   -0.1700    2.5610 ho        1 MOL      0.342849
    172 H78        -2.2840   -0.3350    3.5820 ho        1 MOL      0.342849
    173 O25        -4.2120   -0.9930    0.8400 oh        1 MOL     -0.666774
    174 H79        -3.7700   -1.2000    1.6610 ho        1 MOL      0.342849
    175 H80        -4.6350   -0.1440    1.0070 ho        1 MOL      0.342849
@<TRIPOS>BOND
     1    1    2 1   
     2    1    4 1   
     3    1    5 1   
     4    1    6 1   
     5    2    3 2   
     6    2    7 1   
     7    7    8 1   
     8    7   15 1   
     9    8    9 1   
    10    8   11 1   
    11    8   16 1   
    12    9   10 2   
    13    9   19 1   
    14   11   12 1   
    15   11   17 1   
    16   11   18 1   
    17   12   13 1   
    18   12   14 1   
    19   19   20 1   
    20   19   24 1   
    21   20   21 1   
    22   20   23 1   
    23   20   25 1   
    24   21   22 2   
    25   21   29 1   
    26   23   26 1   
    27   23   27 1   
    28   23   28 1   
    29   29   30 1   
    30   29   37 1   
    31   30   31 1   
    32   30   33 1   
    33   30   38 1   
    34   31   32 2   
    35   31   41 1   
    36   33   34 1   
    37   33   39 1   
    38   33   40 1   
    39   34   35 1   
    40   34   36 1   
    41   41   42 1   
    42   41   45 1   
    43   42   43 1   
    44   42   46 1   
    45   42   47 1   
    46   43   44 2   
    47   43   48 1   
    48   48   49 1   
    49   48   56 1   
    50   49   50 1   
    51   49   52 1   
    52   49   57 1   
    53   50   51 2   
    54   50   62 1   
    55   52   53 1   
    56   52   58 1   
    57   52   59 1   
    58   53   54 1   
    59   53   55 2   
    60   54   60 1   
    61   54   61 1   
    62   62   63 1   
    63   62   66 1   
    64   63   64 1   
    65   63   67 1   
    66   63   68 1   
    67   64   65 2   
    68   64   69 1   
    69   69   70 1   
    70   69   76 1   
    71   70   71 1   
    72   70   73 1   
    73   70   77 1   
    74   71   72 2   
    75   71   83 1   
    76   73   74 1   
    77   73   75 1   
    78   73   78 1   
    79   74   80 1   
    80   74   81 1   
    81   74   82 1   
    82   75   79 1   
    83   83   84 1   
    84   83   91 1   
    85   84   85 1   
    86   84   87 1   
    87   84   92 1   
    88   85   86 2   
    89   85  102 1   
    90   87   88 1   
    91   87   89 1   
    92   87   93 1   
    93   88   90 1   
    94   88   94 1   
    95   88   95 1   
    96   89   96 1   
    97   89   97 1   
    98   89   98 1   
    99   90   99 1   
   100   90  100 1   
   101   90  101 1   
   102  102  103 1   
   103  102  110 1   
   104  103  104 1   
   105  103  106 1   
   106  103  111 1   
   107  104  105 2   
   108  104  114 1   
   109  106  107 1   
   110  106  112 1   
   111  106  113 1   
   112  107  108 1   
   113  107  109 1   
   114  114  115 1   
   115  114  125 1   
   116  115  116 1   
   117  115  118 1   
   118  115  126 1   
   119  116  117 2   
   120  116  134 1   
   121  118  119 1   
   122  118  127 1   
   123  118  128 1   
   124  119  120 ar  
   125  119  121 ar  
   126  120  122 ar  
   127  120  129 1   
   128  121  123 ar  
   129  121  130 1   
   130  122  124 ar  
   131  122  131 1   
   132  123  124 ar  
   133  123  132 1   
   134  124  133 1   
   135  134  135 1   
   136  134  140 1   
   137  135  136 1   
   138  135  138 1   
   139  135  141 1   
   140  136  137 2   
   141  136  148 1   
   142  138  139 1   
   143  138  142 1   
   144  138  143 1   
   145  139  140 1   
   146  139  144 1   
   147  139  145 1   
   148  140  146 1   
   149  140  147 1   
   150  148  149 1   
   151  148  157 1   
   152  149  150 1   
   153  149  152 1   
   154  149  158 1   
   155  150  151 2   
   156  150  163 1   
   157  152  153 1   
   158  152  159 1   
   159  152  160 1   
   160  153  154 1   
   161  153  161 1   
   162  153  162 1   
   163  154  155 1   
   164  154  156 1   
   165  163  164 1   
   166  163  168 1   
   167  164  165 1   
   168  164  166 1   
   169  164  167 1   
   170  170  171 1   
   171  170  172 1   
   172  173  174 1   
   173  173  175 1   
@<TRIPOS>SUBSTRUCTURE
     1 MOL         1 TEMP              0 ****  ****    0 ROOT
