@<TRIPOS>MOLECULE
MOL
  183   181     1     0     0
SMALL
resp


@<TRIPOS>ATOM
      1 C1         -0.5150    1.3480    6.0650 c3        1 MOL     -0.383630
      2 C2         -0.9630    1.4020    4.5770 c         1 MOL      0.707961
      3 O1         -0.1990    2.0230    3.8310 o         1 MOL     -0.519346
      4 H1          0.4110    0.7780    6.1450 hc        1 MOL      0.090633
      5 H2         -0.3500    2.3610    6.4330 hc        1 MOL      0.090633
      6 H3         -1.2900    0.8660    6.6610 hc        1 MOL      0.090633
      7 N1         -2.1450    0.9760    4.1850 n         1 MOL     -0.488632
      8 C3         -2.7110    0.9780    2.8640 c3        1 MOL      0.159530
      9 C4         -3.2980    2.3560    2.4800 c         1 MOL      0.372834
     10 O2         -4.2750    2.8570    3.0730 o         1 MOL     -0.571094
     11 C5         -3.8260   -0.0500    2.6920 c3        1 MOL     -0.245281
     12 C6         -4.5300   -0.0690    1.3340 c         1 MOL      0.738666
     13 O3         -5.6140   -0.6220    1.3240 o         1 MOL     -0.609025
     14 O4         -4.0910    0.5340    0.3200 o         1 MOL     -0.609025
     15 H4         -2.7360    0.4620    4.8260 hn        1 MOL      0.275881
     16 H5         -1.8540    0.7380    2.2470 h1        1 MOL     -0.034021
     17 H6         -4.6430    0.0630    3.3980 hc        1 MOL      0.051533
     18 H7         -3.4070   -1.0350    2.8860 hc        1 MOL      0.051533
     19 N2         -2.6610    3.0800    1.6030 n         1 MOL     -0.054149
     20 C7         -3.0060    4.4760    1.2590 c3        1 MOL     -0.209956
     21 C8         -4.0500    4.4970    0.1270 c         1 MOL      0.368993
     22 O5         -4.7470    5.5100   -0.0670 o         1 MOL     -0.559034
     23 C9         -1.7400    5.2460    0.8330 c3        1 MOL      0.430530
     24 C10        -0.6780    5.1210    1.8860 c3        1 MOL      0.129895
     25 C11        -1.8950    6.6860    0.2450 c3        1 MOL     -0.235214
     26 C12        -0.9570    5.8300    3.2250 c3        1 MOL     -0.619710
     27 H8         -1.9920    2.5910    1.0260 hn        1 MOL      0.150025
     28 H9         -3.5990    4.9190    2.0620 h1        1 MOL      0.107057
     29 H10        -1.2540    4.6820    0.0400 hc        1 MOL     -0.060227
     30 H11         0.1970    5.5300    1.3820 hc        1 MOL     -0.011565
     31 H12        -0.4540    4.0690    2.0870 hc        1 MOL     -0.011565
     32 H13        -2.2360    7.2530    1.1120 hc        1 MOL      0.035938
     33 H14        -0.9060    7.0640   -0.0170 hc        1 MOL      0.035938
     34 H15        -2.6560    6.7030   -0.5310 hc        1 MOL      0.035938
     35 H16        -1.2980    6.8500    3.0720 hc        1 MOL      0.141014
     36 H17        -1.6340    5.1740    3.7680 hc        1 MOL      0.141014
     37 H18        -0.1050    5.6950    3.8940 hc        1 MOL      0.141014
     38 N3         -4.3440    3.3580   -0.5420 n         1 MOL      0.031001
     39 C13        -5.4050    3.2860   -1.5790 c3        1 MOL     -0.162942
     40 C14        -6.7130    2.8270   -0.9530 c         1 MOL      0.415760
     41 O6         -7.7690    2.9060   -1.6140 o         1 MOL     -0.526996
     42 C15        -5.0330    2.4260   -2.7720 c3        1 MOL      0.197382
     43 C16        -3.6120    2.6440   -3.1780 c         1 MOL      0.549247
     44 O7         -2.7640    1.9240   -2.5620 o         1 MOL     -0.663363
     45 O8         -3.3440    3.4480   -4.0670 o         1 MOL     -0.663363
     46 H19        -3.8810    2.4910   -0.3170 hn        1 MOL      0.008041
     47 H20        -5.6400    4.2860   -1.9480 h1        1 MOL      0.102225
     48 H21        -5.6620    2.6580   -3.6230 hc        1 MOL     -0.049924
     49 H22        -5.2280    1.4030   -2.4360 hc        1 MOL     -0.049924
     50 N4         -6.7080    2.2990    0.2370 n         1 MOL     -0.207759
     51 C17        -7.8660    1.5440    0.8240 c3        1 MOL     -0.327891
     52 C18        -8.3040    0.4250   -0.1170 c         1 MOL      0.426406
     53 O9         -9.5280    0.3240   -0.4710 o         1 MOL     -0.576054
     54 H23        -5.7680    2.1000    0.5680 hn        1 MOL      0.184584
     55 H24        -8.7210    2.2130    0.7840 h1        1 MOL      0.156052
     56 H25        -7.5560    1.0750    1.7630 h1        1 MOL      0.156052
     57 N5         -7.3380   -0.3570   -0.6600 n         1 MOL     -0.226884
     58 C19        -7.4300   -1.4340   -1.6920 c3        1 MOL      0.137140
     59 C20        -7.3330   -2.7910   -0.9720 c         1 MOL      0.328310
     60 O10        -7.7070   -3.7540   -1.6350 o         1 MOL     -0.530939
     61 C21        -6.3350   -1.2780   -2.7730 c3        1 MOL      0.044057
     62 C22        -4.8310   -1.3740   -2.4140 c         1 MOL      0.696238
     63 O11        -3.9710   -0.9050   -3.1580 o         1 MOL     -0.747413
     64 O12        -4.4900   -1.9070   -1.3290 o         1 MOL     -0.747413
     65 H26        -6.4700   -0.2570   -0.1600 hn        1 MOL      0.245296
     66 H27        -8.4250   -1.4150   -2.1390 h1        1 MOL      0.056923
     67 H28        -6.5000   -0.2990   -3.2230 hc        1 MOL     -0.027937
     68 H29        -6.6070   -2.0520   -3.4930 hc        1 MOL     -0.027937
     69 N6         -6.8240   -2.8940    0.3030 n         1 MOL     -0.258524
     70 C23        -6.6820   -4.2290    0.9120 c3        1 MOL     -0.009886
     71 C24        -5.2710   -4.8340    0.9310 c         1 MOL      0.393663
     72 O13        -5.0180   -5.9640    1.3520 o         1 MOL     -0.597429
     73 H30        -6.5710   -2.0930    0.8640 hn        1 MOL      0.183760
     74 H31        -7.2150   -5.0270    0.3950 h1        1 MOL      0.061553
     75 H32        -7.1530   -4.1930    1.8920 h1        1 MOL      0.061553
     76 N7         -4.2390   -4.1680    0.3830 n         1 MOL     -0.025931
     77 C25        -2.8270   -4.5460    0.4960 c3        1 MOL      0.040774
     78 C26        -1.8770   -3.3480    0.8250 c         1 MOL      0.475593
     79 O14        -2.1750   -2.2230    0.5860 o         1 MOL     -0.581302
     80 C27        -2.3910   -5.3970   -0.6970 c3        1 MOL     -0.075067
     81 C28        -2.6700   -4.8400   -2.1440 c3        1 MOL     -0.206866
     82 C29        -1.5430   -3.8950   -2.6240 c         1 MOL      0.489048
     83 N8         -0.8330   -4.1930   -3.7170 n         1 MOL     -0.736600
     84 O15        -1.2850   -2.9060   -1.9000 o         1 MOL     -0.382598
     85 H33        -4.4140   -3.2120    0.1010 hn        1 MOL      0.106974
     86 H34        -2.7730   -5.1890    1.3810 h1        1 MOL      0.026008
     87 H35        -2.9230   -6.3500   -0.7140 hc        1 MOL      0.027936
     88 H36        -1.3400   -5.6350   -0.5200 hc        1 MOL      0.027936
     89 H37        -3.6710   -4.4000   -2.2320 hc        1 MOL      0.094089
     90 H38        -2.7920   -5.6170   -2.8880 hc        1 MOL      0.094089
     91 H39        -1.2100   -4.8560   -4.3770 hn        1 MOL      0.354545
     92 H40         0.0180   -3.7080   -3.9630 hn        1 MOL      0.354545
     93 N9         -0.7870   -3.7820    1.3940 n         1 MOL     -0.334828
     94 C30         0.3330   -2.9270    1.8160 c3        1 MOL     -0.314899
     95 C31         1.5100   -3.3400    0.9610 c         1 MOL      0.468723
     96 O16         2.1950   -4.3970    1.2070 o         1 MOL     -0.597478
     97 C32         0.4260   -3.0820    3.3530 c3        1 MOL      0.371260
     98 C33         1.6130   -2.2100    3.8250 c3        1 MOL     -0.304096
     99 C34        -0.8870   -2.6240    4.0340 c3        1 MOL     -0.304096
    100 H41        -0.7540   -4.7950    1.4860 hn        1 MOL      0.286293
    101 H42         0.0510   -1.9050    1.5320 h1        1 MOL      0.327952
    102 H43         0.5460   -4.0980    3.7300 hc        1 MOL     -0.021882
    103 H44         1.5640   -1.1910    3.4350 hc        1 MOL      0.056457
    104 H45         1.6050   -2.2950    4.9140 hc        1 MOL      0.056457
    105 H46         2.5580   -2.6830    3.5650 hc        1 MOL      0.056457
    106 H47        -1.0870   -1.5840    3.7740 hc        1 MOL      0.056457
    107 H48        -1.7050   -3.2780    3.7430 hc        1 MOL      0.056457
    108 H49        -0.6820   -2.7120    5.1010 hc        1 MOL      0.056457
    109 N10         1.8660   -2.5550   -0.0600 n         1 MOL     -0.164000
    110 C35         3.0960   -2.8380   -0.9350 c3        1 MOL     -0.007957
    111 C36         4.2570   -1.9780   -0.4390 c         1 MOL      0.429002
    112 O17         4.0470   -1.1280    0.3940 o         1 MOL     -0.277026
    113 C37         2.7460   -2.5590   -2.3590 c3        1 MOL     -0.179962
    114 C38         3.0530   -1.0840   -2.7610 c         1 MOL      0.564357
    115 N11         2.2920   -0.0870   -2.3730 n         1 MOL     -0.566210
    116 O18         3.9440   -0.7980   -3.5360 o         1 MOL     -0.590445
    117 H50         1.2880   -1.7180   -0.1160 hn        1 MOL      0.060723
    118 H51         3.4020   -3.8860   -0.8600 h1        1 MOL      0.088926
    119 H52         1.7140   -2.7590   -2.6480 hc        1 MOL      0.061271
    120 H53         3.4100   -3.0820   -3.0550 hc        1 MOL      0.061271
    121 H54         1.6480   -0.1560   -1.6000 hn        1 MOL      0.321325
    122 H55         2.4780    0.7940   -2.8310 hn        1 MOL      0.321325
    123 N12         5.4740   -2.2810   -0.9690 n         1 MOL     -0.503501
    124 C39         6.7070   -1.7360   -0.3690 c3        1 MOL      0.119982
    125 C40         6.8980   -0.2000   -0.3020 c         1 MOL      0.744523
    126 O19         7.4200    0.2150    0.7030 o         1 MOL     -0.568476
    127 C41         7.8620   -2.4480   -1.0530 c3        1 MOL     -0.201044
    128 C42         9.2060   -2.2130   -0.4760 ca        1 MOL      0.065964
    129 C43         9.7280   -2.8270    0.6610 ca        1 MOL     -0.183367
    130 C44        10.0970   -1.3920   -1.1900 ca        1 MOL     -0.183367
    131 C45        10.9710   -2.4310    1.1780 ca        1 MOL     -0.246011
    132 C46        11.3640   -1.0360   -0.7220 ca        1 MOL     -0.246011
    133 C47        11.7750   -1.4910    0.5470 ca        1 MOL      0.376064
    134 O20        12.9710   -1.1280    1.0580 oh        1 MOL     -0.543542
    135 H56         5.5960   -3.0850   -1.5690 hn        1 MOL      0.304872
    136 H57         6.7730   -1.9840    0.6880 h1        1 MOL      0.054141
    137 H58         7.8610   -2.2940   -2.1300 hc        1 MOL      0.072976
    138 H59         7.6740   -3.5090   -0.9060 hc        1 MOL      0.072976
    139 H60         9.0370   -3.4260    1.2420 ha        1 MOL      0.139659
    140 H61         9.8120   -0.9190   -2.1170 ha        1 MOL      0.139659
    141 H62        11.2220   -2.9650    2.0820 ha        1 MOL      0.131806
    142 H63        12.0900   -0.4180   -1.2210 ha        1 MOL      0.131806
    143 H64        13.3560   -0.4050    0.5610 ho        1 MOL      0.390442
    144 N13         6.3730    0.6280   -1.2380 n         1 MOL     -0.539948
    145 C48         6.3980    2.0860   -1.1340 c3        1 MOL     -0.109962
    146 C49         5.4480    2.5200    0.0520 c         1 MOL      0.403106
    147 O21         5.6830    3.5860    0.5780 o         1 MOL     -0.512221
    148 C50         5.9930    2.6200   -2.5330 c3        1 MOL      0.045992
    149 C51         5.8640    4.1550   -2.6080 c3        1 MOL     -0.395720
    150 C52         6.3030    4.5540   -4.0260 c         1 MOL      0.710472
    151 O22         7.5130    4.4950   -4.3870 o         1 MOL     -0.743405
    152 O23         5.4330    4.6750   -4.9050 o         1 MOL     -0.743405
    153 H65         5.7940    0.2790   -1.9820 hn        1 MOL      0.240209
    154 H66         7.3730    2.4270   -0.8120 h1        1 MOL      0.142947
    155 H67         5.0540    2.1700   -2.8600 hc        1 MOL      0.083065
    156 H68         6.7060    2.1970   -3.2480 hc        1 MOL      0.083065
    157 H69         6.4500    4.6530   -1.8320 hc        1 MOL      0.082411
    158 H70         4.8450    4.5160   -2.4510 hc        1 MOL      0.082411
    159 N14         4.4970    1.7300    0.5310 n         1 MOL     -0.085967
    160 C53         3.6340    1.9850    1.6990 c3        1 MOL     -0.121341
    161 C54         4.3060    1.4110    2.9840 c         1 MOL      0.478735
    162 O24         4.2460    2.0450    4.0490 o         1 MOL     -0.580724
    163 C55         2.2550    1.3440    1.4920 c3        1 MOL      0.170040
    164 C56         1.5320    1.7860    0.1930 c3        1 MOL     -0.003815
    165 C57         0.2410    0.9690   -0.1100 c         1 MOL      0.755654
    166 O25        -0.9170    1.5070   -0.2070 o         1 MOL     -0.765025
    167 O26         0.3030   -0.2700   -0.4220 o         1 MOL     -0.765025
    168 H71         4.4060    0.9110   -0.0410 hn        1 MOL      0.057472
    169 H72         3.4650    3.0280    1.9380 h1        1 MOL      0.097640
    170 H73         1.6180    1.6000    2.3330 hc        1 MOL     -0.038752
    171 H74         2.2810    0.2530    1.5160 hc        1 MOL     -0.038752
    172 H75         2.1130    1.8330   -0.7290 hc        1 MOL     -0.016903
    173 H76         1.2210    2.8070    0.4190 hc        1 MOL     -0.016903
    174 N15         4.9140    0.2990    2.8200 n         1 MOL     -0.021856
    175 C58         5.7530   -0.2200    3.8880 c3        1 MOL     -0.283064
    176 H77         6.7900    0.0620    3.7040 h1        1 MOL      0.097205
    177 H78         5.4270    0.1950    4.8410 h1        1 MOL      0.097205
    178 H79         5.6730   -1.3070    3.9180 h1        1 MOL      0.097205
    179 H80         4.7820   -0.1860    1.9390 hn        1 MOL      0.056811
    180 Ca1        -2.3020   -0.4120   -1.2670 Ca        1 MOL      1.688883
    181 O27        -0.6450   -0.1640   -3.4370 oh        1 MOL     -0.832452
    182 H81        -0.2730   -0.5650   -4.2300 ho        1 MOL      0.397660
    183 H82        -0.4360    0.7610   -3.5190 ho        1 MOL      0.397660
@<TRIPOS>BOND
     1    1    2 1   
     2    1    4 1   
     3    1    5 1   
     4    1    6 1   
     5    2    3 2   
     6    2    7 1   
     7    7    8 1   
     8    7   15 1   
     9    8    9 1   
    10    8   11 1   
    11    8   16 1   
    12    9   10 2   
    13    9   19 1   
    14   11   12 1   
    15   11   17 1   
    16   11   18 1   
    17   12   13 1   
    18   12   14 1   
    19   19   20 1   
    20   19   27 1   
    21   20   21 1   
    22   20   23 1   
    23   20   28 1   
    24   21   22 2   
    25   21   38 1   
    26   23   24 1   
    27   23   25 1   
    28   23   29 1   
    29   24   26 1   
    30   24   30 1   
    31   24   31 1   
    32   25   32 1   
    33   25   33 1   
    34   25   34 1   
    35   26   35 1   
    36   26   36 1   
    37   26   37 1   
    38   38   39 1   
    39   38   46 1   
    40   39   40 1   
    41   39   42 1   
    42   39   47 1   
    43   40   41 2   
    44   40   50 1   
    45   42   43 1   
    46   42   48 1   
    47   42   49 1   
    48   43   44 1   
    49   43   45 1   
    50   50   51 1   
    51   50   54 1   
    52   51   52 1   
    53   51   55 1   
    54   51   56 1   
    55   52   53 2   
    56   52   57 1   
    57   57   58 1   
    58   57   65 1   
    59   58   59 1   
    60   58   61 1   
    61   58   66 1   
    62   59   60 2   
    63   59   69 1   
    64   61   62 1   
    65   61   67 1   
    66   61   68 1   
    67   62   63 1   
    68   62   64 1   
    69   69   70 1   
    70   69   73 1   
    71   70   71 1   
    72   70   74 1   
    73   70   75 1   
    74   71   72 2   
    75   71   76 1   
    76   76   77 1   
    77   76   85 1   
    78   77   78 1   
    79   77   80 1   
    80   77   86 1   
    81   78   79 2   
    82   78   93 1   
    83   80   81 1   
    84   80   87 1   
    85   80   88 1   
    86   81   82 1   
    87   81   89 1   
    88   81   90 1   
    89   82   83 1   
    90   82   84 2   
    91   83   91 1   
    92   83   92 1   
    93   93   94 1   
    94   93  100 1   
    95   94   95 1   
    96   94   97 1   
    97   94  101 1   
    98   95   96 2   
    99   95  109 1   
   100   97   98 1   
   101   97   99 1   
   102   97  102 1   
   103   98  103 1   
   104   98  104 1   
   105   98  105 1   
   106   99  106 1   
   107   99  107 1   
   108   99  108 1   
   109  109  110 1   
   110  109  117 1   
   111  110  111 1   
   112  110  113 1   
   113  110  118 1   
   114  111  112 2   
   115  111  123 1   
   116  113  114 1   
   117  113  119 1   
   118  113  120 1   
   119  114  115 1   
   120  114  116 2   
   121  115  121 1   
   122  115  122 1   
   123  123  124 1   
   124  123  135 1   
   125  124  125 1   
   126  124  127 1   
   127  124  136 1   
   128  125  126 2   
   129  125  144 1   
   130  127  128 1   
   131  127  137 1   
   132  127  138 1   
   133  128  129 ar  
   134  128  130 ar  
   135  129  131 ar  
   136  129  139 1   
   137  130  132 ar  
   138  130  140 1   
   139  131  133 ar  
   140  131  141 1   
   141  132  133 ar  
   142  132  142 1   
   143  133  134 1   
   144  134  143 1   
   145  144  145 1   
   146  144  153 1   
   147  145  146 1   
   148  145  148 1   
   149  145  154 1   
   150  146  147 2   
   151  146  159 1   
   152  148  149 1   
   153  148  155 1   
   154  148  156 1   
   155  149  150 1   
   156  149  157 1   
   157  149  158 1   
   158  150  151 1   
   159  150  152 1   
   160  159  160 1   
   161  159  168 1   
   162  160  161 1   
   163  160  163 1   
   164  160  169 1   
   165  161  162 2   
   166  161  174 1   
   167  163  164 1   
   168  163  170 1   
   169  163  171 1   
   170  164  165 1   
   171  164  172 1   
   172  164  173 1   
   173  165  166 1   
   174  165  167 1   
   175  174  175 1   
   176  174  179 1   
   177  175  176 1   
   178  175  177 1   
   179  175  178 1   
   180  181  182 1   
   181  181  183 1   
@<TRIPOS>SUBSTRUCTURE
     1 MOL         1 TEMP              0 ****  ****    0 ROOT
