@<TRIPOS>MOLECULE
MOL
  189   185     1     0     0
SMALL
resp


@<TRIPOS>ATOM
      1 C1          0.4460   -4.3290    5.8560 c3        1 MOL     -0.400160
      2 C2          0.9580   -3.8050    4.5780 c         1 MOL      0.714608
      3 O1          1.0320   -2.5200    4.4010 o         1 MOL     -0.612351
      4 H1         -0.6340   -4.1840    5.9020 hc        1 MOL      0.104567
      5 H2          0.6720   -5.3920    5.9300 hc        1 MOL      0.104567
      6 H3          0.9180   -3.7980    6.6830 hc        1 MOL      0.104567
      7 N1          1.3160   -4.6760    3.6470 n         1 MOL     -0.545084
      8 C3          1.8510   -4.2160    2.2870 c3        1 MOL      0.214619
      9 C4          1.5700   -5.2580    1.1940 c         1 MOL      0.515536
     10 O2          1.8430   -6.4770    1.3250 o         1 MOL     -0.587794
     11 C5          3.2880   -3.8900    2.5860 c3        1 MOL     -0.377869
     12 C6          4.0260   -3.1660    1.4140 c         1 MOL      0.783453
     13 O3          5.2700   -3.1340    1.5130 o         1 MOL     -0.670554
     14 O4          3.3520   -2.6650    0.4510 o         1 MOL     -0.670554
     15 H4          1.2290   -5.6810    3.7760 hn        1 MOL      0.304451
     16 H5          1.3840   -3.2530    2.0530 h1        1 MOL     -0.025579
     17 H6          3.8100   -4.8450    2.6840 hc        1 MOL      0.088046
     18 H7          3.2830   -3.3050    3.5080 hc        1 MOL      0.088046
     19 N2          1.1040   -4.8330    0.0110 n         1 MOL     -0.455509
     20 C7          0.8560   -5.6500   -1.1780 c3        1 MOL      0.048526
     21 C8          1.9010   -5.2460   -2.2010 c         1 MOL      0.614763
     22 O5          1.9180   -5.9270   -3.2290 o         1 MOL     -0.587212
     23 C9         -0.5520   -5.5200   -1.7500 c3        1 MOL      0.083877
     24 C10        -1.6870   -5.2540   -0.6930 c3        1 MOL      0.041440
     25 C11        -0.8750   -6.8450   -2.4060 c3        1 MOL     -0.113629
     26 C12        -3.0250   -4.8900   -1.2800 c3        1 MOL     -0.197059
     27 H8          1.0650   -3.8330   -0.0710 hn        1 MOL      0.270348
     28 H9          1.1010   -6.6800   -0.9330 h1        1 MOL      0.087915
     29 H10        -0.4860   -4.7210   -2.4890 hc        1 MOL      0.052771
     30 H11        -1.4340   -4.4210   -0.0390 hc        1 MOL      0.001174
     31 H12        -1.7720   -6.0950   -0.0080 hc        1 MOL      0.001174
     32 H13        -1.7330   -6.7140   -3.0660 hc        1 MOL      0.005119
     33 H14        -0.0220   -7.3200   -2.8900 hc        1 MOL      0.005119
     34 H15        -1.1920   -7.5600   -1.6390 hc        1 MOL      0.005119
     35 H16        -3.6500   -4.5460   -0.4550 hc        1 MOL      0.050831
     36 H17        -2.9690   -4.1840   -2.1030 hc        1 MOL      0.050831
     37 H18        -3.4390   -5.7950   -1.7190 hc        1 MOL      0.050831
     38 N3          2.8710   -4.3190   -2.1310 n         1 MOL     -0.537010
     39 C13         3.6990   -3.8900   -3.2900 c3        1 MOL      0.150961
     40 C14         5.1820   -3.5560   -2.9250 c         1 MOL      0.347713
     41 O6          6.0670   -3.8030   -3.7470 o         1 MOL     -0.556566
     42 C15         2.9740   -2.6950   -4.0510 c3        1 MOL     -0.271169
     43 C16         2.4420   -1.5900   -3.1770 c         1 MOL      0.810317
     44 O7          2.9840   -1.2330   -2.1490 o         1 MOL     -0.729238
     45 O8          1.3250   -1.1060   -3.4580 o         1 MOL     -0.729238
     46 H19         2.9210   -3.7890   -1.2720 hn        1 MOL      0.329891
     47 H20         3.7020   -4.7230   -3.9950 h1        1 MOL      0.068936
     48 H21         2.1640   -3.0720   -4.6770 hc        1 MOL      0.064848
     49 H22         3.6330   -2.1180   -4.7060 hc        1 MOL      0.064848
     50 N4          5.4390   -3.0610   -1.7480 n         1 MOL     -0.031383
     51 C17         6.7620   -2.5600   -1.3180 c3        1 MOL     -0.309309
     52 C18         7.0700   -1.1370   -1.7060 c         1 MOL      0.576175
     53 O9          8.2390   -0.8080   -1.8930 o         1 MOL     -0.632782
     54 H23         4.7100   -2.8570   -1.0930 hn        1 MOL      0.031953
     55 H24         7.5000   -3.1700   -1.8440 h1        1 MOL      0.129364
     56 H25         6.7610   -2.6040   -0.2280 h1        1 MOL      0.129364
     57 N5          6.1150   -0.2190   -1.7440 n         1 MOL     -0.123301
     58 C19         6.4640    1.0990   -2.3940 c3        1 MOL     -0.153083
     59 C20         7.0130    2.0640   -1.3380 c         1 MOL      0.563389
     60 O10         7.6050    3.0720   -1.6560 o         1 MOL     -0.581491
     61 C21         5.2770    1.6630   -3.1380 c3        1 MOL     -0.144113
     62 C22         4.0530    1.8960   -2.3250 c         1 MOL      0.806267
     63 O11         4.0380    1.5970   -1.0790 o         1 MOL     -0.706705
     64 O12         3.1130    2.3960   -2.8990 o         1 MOL     -0.706705
     65 H26         5.1480   -0.4860   -1.6130 hn        1 MOL      0.137493
     66 H27         7.3050    0.9460   -3.0630 h1        1 MOL      0.131152
     67 H28         4.9630    0.8690   -3.8240 hc        1 MOL      0.039124
     68 H29         5.5820    2.5330   -3.7180 hc        1 MOL      0.039124
     69 N6          7.0780    1.6910   -0.0650 n         1 MOL     -0.291373
     70 C23         7.3910    2.5160    1.0600 c3        1 MOL     -0.241020
     71 C24         6.3440    3.4050    1.5210 c         1 MOL      0.532224
     72 O13         6.6500    4.3630    2.2810 o         1 MOL     -0.598530
     73 H30         6.6780    0.8160    0.2050 hn        1 MOL      0.225316
     74 H31         8.2870    3.0890    0.8060 h1        1 MOL      0.118608
     75 H32         7.6460    1.8130    1.8510 h1        1 MOL      0.118608
     76 N7          5.0380    3.2520    1.0880 n         1 MOL     -0.285327
     77 C25         3.9030    4.2420    1.3670 c3        1 MOL      0.031946
     78 C26         2.6110    3.4000    1.6900 c         1 MOL      0.446573
     79 O14         2.6030    2.1960    1.5290 o         1 MOL     -0.523860
     80 C27         3.5920    5.1940    0.2320 c3        1 MOL     -0.067972
     81 C28         4.7820    6.0100   -0.2620 c3        1 MOL     -0.131594
     82 C29         4.4000    7.3110   -1.0280 c         1 MOL      0.659783
     83 N8          5.3970    8.0090   -1.5300 n         1 MOL     -0.819888
     84 O15         3.3130    7.8200   -0.9380 o         1 MOL     -0.553703
     85 H33         4.7660    2.4080    0.5980 hn        1 MOL      0.208691
     86 H34         4.1040    4.8140    2.2620 h1        1 MOL      0.049587
     87 H35         2.8080    5.8910    0.5150 hc        1 MOL      0.039692
     88 H36         3.2260    4.5560   -0.5800 hc        1 MOL      0.039692
     89 H37         5.3700    5.3760   -0.9270 hc        1 MOL      0.067544
     90 H38         5.4290    6.2280    0.5780 hc        1 MOL      0.067544
     91 H39         6.3160    7.6080   -1.4330 hn        1 MOL      0.357902
     92 H40         5.2200    8.9510   -1.8750 hn        1 MOL      0.357902
     93 N9          1.5110    4.0410    2.1690 n         1 MOL     -0.419834
     94 C30         0.3040    3.2980    2.5530 c3        1 MOL     -0.059076
     95 C31        -0.8340    3.7100    1.6360 c         1 MOL      0.416004
     96 O16        -1.3700    4.8080    1.6180 o         1 MOL     -0.552283
     97 C32        -0.0720    3.2320    4.0500 c3        1 MOL      0.220094
     98 C33        -1.1200    2.0420    4.1990 c3        1 MOL     -0.254747
     99 C34         1.1450    2.9970    4.9430 c3        1 MOL     -0.254747
    100 H41         1.5250    5.0500    2.3050 hn        1 MOL      0.293241
    101 H42         0.5200    2.2690    2.2580 h1        1 MOL      0.201513
    102 H43        -0.6230    4.0700    4.4760 hc        1 MOL     -0.020230
    103 H44        -1.3000    1.8990    5.2600 hc        1 MOL      0.053632
    104 H45        -2.0180    2.4160    3.7080 hc        1 MOL      0.053632
    105 H46        -0.8530    1.1320    3.6680 hc        1 MOL      0.053632
    106 H47         1.5480    2.0070    4.7130 hc        1 MOL      0.053632
    107 H48         1.9110    3.7730    4.8140 hc        1 MOL      0.053632
    108 H49         0.8790    2.9870    5.9950 hc        1 MOL      0.053632
    109 N10        -1.3970    2.6770    0.9480 n         1 MOL     -0.062858
    110 C35        -2.5460    2.8030    0.0240 c3        1 MOL     -0.092302
    111 C36        -3.8850    2.6190    0.8160 c         1 MOL      0.323868
    112 O17        -3.9330    1.9830    1.8930 o         1 MOL     -0.402690
    113 C37        -2.4750    1.5470   -0.8640 c3        1 MOL     -0.069429
    114 C38        -3.4590    1.5840   -1.9980 c         1 MOL      0.647900
    115 N11        -3.7150    2.7890   -2.5340 n         1 MOL     -0.699659
    116 O18        -4.2960    0.6920   -2.1560 o         1 MOL     -0.589350
    117 H50        -0.9580    1.7800    0.7910 hn        1 MOL      0.033735
    118 H51        -2.4960    3.7360   -0.5220 h1        1 MOL      0.107847
    119 H52        -2.6030    0.6300   -0.2840 hc        1 MOL      0.072565
    120 H53        -1.5420    1.4990   -1.4210 hc        1 MOL      0.072565
    121 H54        -3.0660    3.5640   -2.5090 hn        1 MOL      0.294140
    122 H55        -4.4200    2.7740   -3.2590 hn        1 MOL      0.294140
    123 N12        -5.0330    2.9430    0.2900 n         1 MOL     -0.237259
    124 C39        -6.3970    2.6620    0.6940 c3        1 MOL      0.247895
    125 C40        -6.7760    1.1950    0.8770 c         1 MOL      0.236211
    126 O19        -7.5410    0.8060    1.7810 o         1 MOL     -0.573095
    127 C41        -7.2540    3.4940   -0.2650 c3        1 MOL     -0.338187
    128 C42        -7.2260    3.0980   -1.6940 ca        1 MOL      0.164438
    129 C43        -6.5960    3.9620   -2.6000 ca        1 MOL     -0.177607
    130 C44        -7.9690    2.0740   -2.2670 ca        1 MOL     -0.177607
    131 C45        -6.4380    3.6440   -3.9870 ca        1 MOL     -0.224585
    132 C46        -7.9200    1.7490   -3.6370 ca        1 MOL     -0.224585
    133 C47        -7.1600    2.5270   -4.5600 ca        1 MOL      0.308736
    134 O20        -7.2630    2.3350   -5.8630 oh        1 MOL     -0.420226
    135 H56        -4.9790    3.5350   -0.5310 hn        1 MOL      0.155782
    136 H57        -6.5440    3.0540    1.6920 h1        1 MOL      0.016461
    137 H58        -7.0810    4.5580   -0.1080 hc        1 MOL      0.093424
    138 H59        -8.2540    3.2960    0.1290 hc        1 MOL      0.093424
    139 H60        -6.1970    4.9190   -2.2810 ha        1 MOL      0.111406
    140 H61        -8.5370    1.4410   -1.6150 ha        1 MOL      0.111406
    141 H62        -6.0990    4.3880   -4.6900 ha        1 MOL      0.090973
    142 H63        -8.5740    0.9450   -3.9440 ha        1 MOL      0.090973
    143 H64        -7.0410    3.1370   -6.3300 ho        1 MOL      0.325590
    144 N13        -6.2800    0.2600    0.0660 n         1 MOL      0.449905
    145 C48        -6.5900   -1.2070    0.0950 c3        1 MOL     -0.349269
    146 C49        -5.6700   -1.8910    1.1640 c         1 MOL      0.380016
    147 O21        -6.0160   -2.9310    1.6820 o         1 MOL     -0.519026
    148 C50        -6.6020   -1.8750   -1.2850 c3        1 MOL      0.096641
    149 C51        -7.6830   -1.4770   -2.3480 c3        1 MOL     -0.173062
    150 C52        -9.0820   -1.4710   -1.9040 c         1 MOL      0.680937
    151 O22        -9.3990   -2.0320   -0.8770 o         1 MOL     -0.704534
    152 O23        -9.8960   -0.7220   -2.5090 o         1 MOL     -0.704534
    153 H65        -5.5730    0.5380   -0.6000 hn        1 MOL      0.114814
    154 H66        -7.5880   -1.2730    0.5180 h1        1 MOL      0.187149
    155 H67        -6.5790   -2.9540   -1.1320 hc        1 MOL     -0.003976
    156 H68        -5.6170   -1.7410   -1.7420 hc        1 MOL     -0.003976
    157 H69        -7.6670   -2.2330   -3.1340 hc        1 MOL      0.029825
    158 H70        -7.4510   -0.4700   -2.6880 hc        1 MOL      0.029825
    159 N14        -4.5890   -1.2460    1.4470 n         1 MOL     -0.017758
    160 C53        -3.7190   -1.6900    2.5790 c3        1 MOL     -0.029425
    161 C54        -4.2370   -1.1470    3.9300 c         1 MOL      0.428825
    162 O24        -4.2110   -1.9020    4.8860 o         1 MOL     -0.541144
    163 C55        -2.3060   -1.0840    2.3480 c3        1 MOL     -0.035024
    164 C56        -1.5580   -1.8340    1.2240 c3        1 MOL     -0.050880
    165 C57        -0.2420   -1.2410    0.8850 c         1 MOL      0.869544
    166 O25         0.4790   -1.8740    0.0700 o         1 MOL     -0.772307
    167 O26         0.1760   -0.1310    1.1670 o         1 MOL     -0.772307
    168 H71        -4.4830   -0.3330    1.0420 hn        1 MOL     -0.100865
    169 H72        -3.6660   -2.7710    2.6960 h1        1 MOL      0.080496
    170 H73        -1.6960   -1.0020    3.2530 hc        1 MOL      0.056449
    171 H74        -2.3520   -0.0530    2.0110 hc        1 MOL      0.056449
    172 H75        -2.1820   -1.9920    0.3450 hc        1 MOL      0.001908
    173 H76        -1.3080   -2.8460    1.5650 hc        1 MOL      0.001908
    174 N15        -4.6160    0.1620    4.0030 n         1 MOL     -0.138895
    175 C58        -4.8720    0.8560    5.2710 c3        1 MOL     -0.225978
    176 H77        -5.9380    1.0680    5.3610 h1        1 MOL      0.082348
    177 H78        -4.5560    0.2250    6.1020 h1        1 MOL      0.082348
    178 H79        -4.3130    1.7920    5.2930 h1        1 MOL      0.082348
    179 H80        -4.7710    0.6830    3.1530 hn        1 MOL      0.158111
    180 Ca1         2.4950   -0.2330    0.1890 Ca        1 MOL      1.785451
    181 O27         2.5000   -0.5630    3.1320 oh        1 MOL     -0.880265
    182 H81         2.0530   -1.2770    3.5950 ho        1 MOL      0.411096
    183 H82         3.0820   -0.1940    3.7860 ho        1 MOL      0.411096
    184 O28         5.3140   -0.2330    1.2480 oh        1 MOL     -0.880265
    185 H83         5.6810   -1.1090    1.3090 ho        1 MOL      0.411096
    186 H84         5.6390    0.2090    2.0340 ho        1 MOL      0.411096
    187 O29         1.1480    0.9620   -1.7810 oh        1 MOL     -0.880265
    188 H85         1.1460    0.2810   -2.4560 ho        1 MOL      0.411096
    189 H86         1.7940    1.6020   -2.0940 ho        1 MOL      0.411096
@<TRIPOS>BOND
     1    1    2 1   
     2    1    4 1   
     3    1    5 1   
     4    1    6 1   
     5    2    3 2   
     6    2    7 1   
     7    7    8 1   
     8    7   15 1   
     9    8    9 1   
    10    8   11 1   
    11    8   16 1   
    12    9   10 2   
    13    9   19 1   
    14   11   12 1   
    15   11   17 1   
    16   11   18 1   
    17   12   13 1   
    18   12   14 1   
    19   19   20 1   
    20   19   27 1   
    21   20   21 1   
    22   20   23 1   
    23   20   28 1   
    24   21   22 2   
    25   21   38 1   
    26   23   24 1   
    27   23   25 1   
    28   23   29 1   
    29   24   26 1   
    30   24   30 1   
    31   24   31 1   
    32   25   32 1   
    33   25   33 1   
    34   25   34 1   
    35   26   35 1   
    36   26   36 1   
    37   26   37 1   
    38   38   39 1   
    39   38   46 1   
    40   39   40 1   
    41   39   42 1   
    42   39   47 1   
    43   40   41 2   
    44   40   50 1   
    45   42   43 1   
    46   42   48 1   
    47   42   49 1   
    48   43   44 1   
    49   43   45 1   
    50   50   51 1   
    51   50   54 1   
    52   51   52 1   
    53   51   55 1   
    54   51   56 1   
    55   52   53 2   
    56   52   57 1   
    57   57   58 1   
    58   57   65 1   
    59   58   59 1   
    60   58   61 1   
    61   58   66 1   
    62   59   60 2   
    63   59   69 1   
    64   61   62 1   
    65   61   67 1   
    66   61   68 1   
    67   62   63 1   
    68   62   64 1   
    69   69   70 1   
    70   69   73 1   
    71   70   71 1   
    72   70   74 1   
    73   70   75 1   
    74   71   72 2   
    75   71   76 1   
    76   76   77 1   
    77   76   85 1   
    78   77   78 1   
    79   77   80 1   
    80   77   86 1   
    81   78   79 2   
    82   78   93 1   
    83   80   81 1   
    84   80   87 1   
    85   80   88 1   
    86   81   82 1   
    87   81   89 1   
    88   81   90 1   
    89   82   83 1   
    90   82   84 2   
    91   83   91 1   
    92   83   92 1   
    93   93   94 1   
    94   93  100 1   
    95   94   95 1   
    96   94   97 1   
    97   94  101 1   
    98   95   96 2   
    99   95  109 1   
   100   97   98 1   
   101   97   99 1   
   102   97  102 1   
   103   98  103 1   
   104   98  104 1   
   105   98  105 1   
   106   99  106 1   
   107   99  107 1   
   108   99  108 1   
   109  109  110 1   
   110  109  117 1   
   111  110  111 1   
   112  110  113 1   
   113  110  118 1   
   114  111  112 2   
   115  111  123 1   
   116  113  114 1   
   117  113  119 1   
   118  113  120 1   
   119  114  115 1   
   120  114  116 2   
   121  115  121 1   
   122  115  122 1   
   123  123  124 1   
   124  123  135 1   
   125  124  125 1   
   126  124  127 1   
   127  124  136 1   
   128  125  126 2   
   129  125  144 1   
   130  127  128 1   
   131  127  137 1   
   132  127  138 1   
   133  128  129 ar  
   134  128  130 ar  
   135  129  131 ar  
   136  129  139 1   
   137  130  132 ar  
   138  130  140 1   
   139  131  133 ar  
   140  131  141 1   
   141  132  133 ar  
   142  132  142 1   
   143  133  134 1   
   144  134  143 1   
   145  144  145 1   
   146  144  153 1   
   147  145  146 1   
   148  145  148 1   
   149  145  154 1   
   150  146  147 2   
   151  146  159 1   
   152  148  149 1   
   153  148  155 1   
   154  148  156 1   
   155  149  150 1   
   156  149  157 1   
   157  149  158 1   
   158  150  151 1   
   159  150  152 1   
   160  159  160 1   
   161  159  168 1   
   162  160  161 1   
   163  160  163 1   
   164  160  169 1   
   165  161  162 2   
   166  161  174 1   
   167  163  164 1   
   168  163  170 1   
   169  163  171 1   
   170  164  165 1   
   171  164  172 1   
   172  164  173 1   
   173  165  166 1   
   174  165  167 1   
   175  174  175 1   
   176  174  179 1   
   177  175  176 1   
   178  175  177 1   
   179  175  178 1   
   180  181  182 1   
   181  181  183 1   
   182  184  185 1   
   183  184  186 1   
   184  187  188 1   
   185  187  189 1   
@<TRIPOS>SUBSTRUCTURE
     1 MOL         1 TEMP              0 ****  ****    0 ROOT
