@<TRIPOS>MOLECULE
MOL
  189   185     1     0     0
SMALL
resp


@<TRIPOS>ATOM
      1 C1          0.1230    3.4580   -4.5260 c3        1 MOL     -0.295416
      2 C2          0.6950    3.0790   -3.1640 c         1 MOL      0.520766
      3 O1          0.1030    3.3050   -2.1440 o         1 MOL     -0.514470
      4 H1         -0.8950    3.0790   -4.6100 hc        1 MOL      0.080961
      5 H2          0.1150    4.5430   -4.6280 hc        1 MOL      0.080961
      6 H3          0.7390    3.0230   -5.3130 hc        1 MOL      0.080961
      7 N1          1.8760    2.5020   -3.1860 n         1 MOL     -0.502944
      8 C3          2.5880    1.9350   -2.0430 c3        1 MOL      0.290898
      9 C4          3.3360    2.9730   -1.2550 c         1 MOL      0.243767
     10 O2          4.6000    3.0790   -1.3500 o         1 MOL     -0.500594
     11 C5          3.3970    0.7520   -2.4770 c3        1 MOL     -0.063675
     12 C6          3.9870   -0.1390   -1.4050 c         1 MOL      0.804915
     13 O3          5.0970   -0.6180   -1.6320 o         1 MOL     -0.754487
     14 O4          3.4180   -0.1560   -0.2670 o         1 MOL     -0.754487
     15 H4          2.3650    2.2720   -4.0350 hn        1 MOL      0.285999
     16 H5          1.9100    1.5090   -1.3100 h1        1 MOL      0.034176
     17 H6          4.1700    1.0880   -3.1660 hc        1 MOL     -0.006895
     18 H7          2.6440    0.1510   -2.9880 hc        1 MOL     -0.006895
     19 N2          2.6380    3.7460   -0.4440 n         1 MOL     -0.198348
     20 C7          3.3330    4.8230    0.2730 c3        1 MOL     -0.032329
     21 C8          4.2330    4.4700    1.5130 c         1 MOL      0.458746
     22 O5          5.1120    5.2620    1.8660 o         1 MOL     -0.549909
     23 C9          2.3750    5.9850    0.7080 c3        1 MOL     -0.226002
     24 C10         2.6020    7.1550   -0.3590 c3        1 MOL      0.065329
     25 C11         2.2120    6.7970   -1.8080 c3        1 MOL      0.003977
     26 C12         2.4410    7.9230   -2.8110 c3        1 MOL     -0.123828
     27 N3          3.7970    8.3230   -3.0040 n4        1 MOL     -0.293946
     28 H8          1.6580    3.5470   -0.3060 hn        1 MOL      0.236096
     29 H9          4.1240    5.1520   -0.4020 h1        1 MOL      0.093737
     30 H10         2.6090    6.3510    1.7060 hc        1 MOL      0.123037
     31 H11         1.3290    5.6620    0.7010 hc        1 MOL      0.123037
     32 H12         3.6730    7.3470   -0.3180 hc        1 MOL     -0.010402
     33 H13         1.9490    7.8830    0.1150 hc        1 MOL     -0.010402
     34 H14         1.1620    6.5250   -1.8210 hc        1 MOL      0.059852
     35 H15         2.7950    5.9150   -2.0830 hc        1 MOL      0.059852
     36 H16         1.8220    8.7540   -2.4970 hx        1 MOL      0.108648
     37 H17         2.1500    7.5860   -3.7980 hx        1 MOL      0.108648
     38 H18         4.1860    8.8720   -2.2490 hn        1 MOL      0.321002
     39 H19         4.4100    7.5720   -3.2740 hn        1 MOL      0.321002
     40 H20         3.8290    8.8530   -3.8630 hn        1 MOL      0.321002
     41 N4          3.9010    3.3450    2.2060 n         1 MOL     -0.253838
     42 C13         4.6420    2.8290    3.3720 c3        1 MOL     -0.007023
     43 C14         5.7480    1.8850    2.9170 c         1 MOL      0.513764
     44 O6          6.5600    1.5440    3.6680 o         1 MOL     -0.532537
     45 C15         3.6770    2.3410    4.5330 c3        1 MOL     -0.406185
     46 C16         2.3920    1.7440    4.0300 c         1 MOL      0.840462
     47 O7          1.3380    2.0350    4.5890 o         1 MOL     -0.712915
     48 O8          2.3050    0.9830    3.0460 o         1 MOL     -0.712915
     49 H21         3.0610    2.8360    1.9670 hn        1 MOL      0.235128
     50 H22         5.1200    3.7160    3.7930 h1        1 MOL      0.104180
     51 H23         3.3500    3.1930    5.1220 hc        1 MOL      0.123262
     52 H24         4.2210    1.5520    5.0540 hc        1 MOL      0.123262
     53 N5          5.7750    1.4980    1.6130 n         1 MOL     -0.004057
     54 C17         6.9930    1.1010    0.8290 c3        1 MOL     -0.382562
     55 C18         7.3810   -0.3440    1.0540 c         1 MOL      0.611508
     56 O9          8.4400   -0.8620    0.7040 o         1 MOL     -0.617360
     57 H25         4.9710    1.7840    1.0720 hn        1 MOL     -0.033754
     58 H26         7.7550    1.8230    1.1380 h1        1 MOL      0.173665
     59 H27         6.6690    1.1830   -0.2110 h1        1 MOL      0.173665
     60 N6          6.4060   -1.1070    1.5700 n         1 MOL     -0.310699
     61 C19         6.5050   -2.5430    2.0010 c3        1 MOL      0.064031
     62 C20         6.4150   -3.4980    0.7870 c         1 MOL      0.377570
     63 O10         6.3980   -4.6960    0.9570 o         1 MOL     -0.481169
     64 C21         5.4950   -2.8280    3.1110 c3        1 MOL     -0.446779
     65 C22         4.0190   -2.8390    2.5860 c         1 MOL      0.966986
     66 O11         3.6180   -3.8340    1.8970 o         1 MOL     -0.793818
     67 O12         3.2030   -1.9720    2.8630 o         1 MOL     -0.793818
     68 H28         5.6610   -0.5250    1.9350 hn        1 MOL      0.134034
     69 H29         7.4420   -2.6810    2.5490 h1        1 MOL      0.113076
     70 H30         5.5780   -1.9920    3.7930 hc        1 MOL      0.134167
     71 H31         5.7600   -3.7900    3.5440 hc        1 MOL      0.134167
     72 N7          6.3570   -2.9890   -0.4700 n         1 MOL     -0.193329
     73 C23         6.3520   -3.7450   -1.6590 c3        1 MOL     -0.309886
     74 C24         5.0860   -4.5860   -1.8130 c         1 MOL      0.593309
     75 O13         5.0870   -5.4610   -2.6820 o         1 MOL     -0.579187
     76 H32         6.2900   -2.0200   -0.7600 hn        1 MOL      0.357622
     77 H33         7.2670   -4.3410   -1.6840 h1        1 MOL      0.128397
     78 H34         6.3670   -3.0990   -2.5460 h1        1 MOL      0.128397
     79 N8          3.9870   -4.3710   -1.0290 n         1 MOL     -0.145518
     80 C25         2.6290   -4.7490   -1.5090 c3        1 MOL     -0.269867
     81 C26         1.6530   -3.5590   -1.4740 c         1 MOL      0.703237
     82 O14         1.8740   -2.4720   -0.8490 o         1 MOL     -0.646674
     83 C27         1.9890   -5.9040   -0.7050 c3        1 MOL      0.382733
     84 C28         2.8450   -7.1930   -0.8410 c3        1 MOL     -0.349071
     85 O15         2.0210   -5.6760    0.6580 oh        1 MOL     -0.625346
     86 H35         4.2410   -3.8050   -0.2330 hn        1 MOL      0.109616
     87 H36         2.6360   -5.0790   -2.5460 h1        1 MOL      0.117740
     88 H37         0.9630   -6.0750   -1.0320 h1        1 MOL      0.026885
     89 H38         2.7950   -5.1380    0.8430 ho        1 MOL      0.462464
     90 H39         3.0150   -7.4990   -1.8860 hc        1 MOL      0.079795
     91 H40         3.8110   -7.1140   -0.3380 hc        1 MOL      0.079795
     92 H41         2.3690   -8.0510   -0.3800 hc        1 MOL      0.079795
     93 N9          0.4830   -3.7250   -2.1110 n         1 MOL     -0.547735
     94 C29        -0.5780   -2.6650   -2.2450 c3        1 MOL      0.031994
     95 C30        -1.8950   -3.1020   -1.6300 c         1 MOL      0.543310
     96 O16        -2.4300   -4.1510   -2.0560 o         1 MOL     -0.572353
     97 C31        -0.8500   -2.3010   -3.7620 c3        1 MOL      0.326812
     98 C32         0.4580   -1.9770   -4.5640 c3        1 MOL      0.177575
     99 C33        -1.8950   -1.1190   -3.8270 c3        1 MOL     -0.487571
    100 C34         0.2500   -1.7030   -6.1120 c3        1 MOL     -0.341129
    101 H42         0.3320   -4.6020   -2.5870 hn        1 MOL      0.266775
    102 H43        -0.1590   -1.7840   -1.7680 h1        1 MOL      0.042314
    103 H44        -1.3110   -3.1570   -4.2480 hc        1 MOL     -0.044357
    104 H45         1.1670   -2.7930   -4.4220 hc        1 MOL     -0.042359
    105 H46         0.9880   -1.1100   -4.1720 hc        1 MOL     -0.042359
    106 H47        -1.3270   -0.2980   -3.3800 hc        1 MOL      0.108591
    107 H48        -2.1470   -0.8040   -4.8430 hc        1 MOL      0.108591
    108 H49        -2.7770   -1.3790   -3.2560 hc        1 MOL      0.108591
    109 H50         1.0930   -1.1070   -6.4870 hc        1 MOL      0.075509
    110 H51         0.2100   -2.6480   -6.6430 hc        1 MOL      0.075509
    111 H52        -0.5560   -0.9910   -6.2410 hc        1 MOL      0.075509
    112 N10        -2.5160   -2.3320   -0.7360 n         1 MOL     -0.319966
    113 C35        -3.8340   -2.5320   -0.1250 c3        1 MOL     -0.022959
    114 C36        -4.9390   -1.8020   -0.8320 c         1 MOL      0.516499
    115 O17        -4.7920   -0.8860   -1.6000 o         1 MOL     -0.448637
    116 C37        -3.8180   -2.0490    1.3010 c3        1 MOL      0.354138
    117 C38        -2.8740   -2.8220    2.1630 c3        1 MOL     -0.630739
    118 O18        -3.4520   -0.6660    1.2950 oh        1 MOL     -0.569144
    119 H53        -1.9560   -1.5420   -0.4470 hn        1 MOL      0.274330
    120 H54        -4.1520   -3.5720   -0.0740 h1        1 MOL      0.065043
    121 H55        -4.7810   -2.2060    1.7870 h1        1 MOL      0.021267
    122 H56        -2.4970   -0.6530    1.3520 ho        1 MOL      0.345191
    123 H57        -3.2640   -2.7610    3.1730 hc        1 MOL      0.180331
    124 H58        -2.7080   -3.8410    1.8100 hc        1 MOL      0.180331
    125 H59        -1.8960   -2.3460    2.1500 hc        1 MOL      0.180331
    126 N11        -6.1880   -2.2070   -0.4130 n         1 MOL     -0.364745
    127 C39        -7.4280   -1.6810   -0.9810 c3        1 MOL     -0.049480
    128 C40        -7.6130   -0.2400   -0.5170 c         1 MOL      0.250458
    129 O19        -8.2350    0.5490   -1.2130 o         1 MOL     -0.457659
    130 C41        -8.5860   -2.5660   -0.7060 c3        1 MOL      0.500960
    131 C42        -9.7440   -2.6120   -1.6610 c3        1 MOL     -0.265612
    132 O20        -8.1840   -3.9160   -0.7100 oh        1 MOL     -0.612439
    133 H60        -6.2240   -2.8810    0.3350 hn        1 MOL      0.189102
    134 H61        -7.3210   -1.6580   -2.0690 h1        1 MOL      0.147216
    135 H62        -9.0030   -2.3470    0.2740 h1        1 MOL     -0.088313
    136 H63        -8.9670   -4.3370   -0.3210 ho        1 MOL      0.366917
    137 H64       -10.3080   -3.5460   -1.7300 hc        1 MOL      0.064391
    138 H65       -10.4760   -1.8610   -1.3710 hc        1 MOL      0.064391
    139 H66        -9.3890   -2.3970   -2.6660 hc        1 MOL      0.064391
    140 N12        -7.1230    0.0610    0.6780 n         1 MOL     -0.168046
    141 C43        -7.2460    1.4590    1.1840 c3        1 MOL     -0.028918
    142 C44        -6.2560    2.3910    0.4780 c         1 MOL      0.466063
    143 O21        -6.6890    3.4410    0.1220 o         1 MOL     -0.516120
    144 C45        -7.1460    1.5190    2.7250 c3        1 MOL     -0.174855
    145 C46        -8.2200    0.7250    3.4080 c3        1 MOL      0.105525
    146 C47        -8.0270    0.5790    4.8940 c3        1 MOL      0.166441
    147 C48        -9.0670   -0.3060    5.6420 c3        1 MOL      0.066906
    148 N13       -10.5210    0.0800    5.4450 n4        1 MOL     -0.283391
    149 H67        -6.7560   -0.6180    1.3280 hn        1 MOL      0.221336
    150 H68        -8.2450    1.8540    0.9760 h1        1 MOL      0.092073
    151 H69        -7.2280    2.5280    3.1110 hc        1 MOL      0.059955
    152 H70        -6.1210    1.2100    2.9480 hc        1 MOL      0.059955
    153 H71        -8.3360   -0.2890    3.0170 hc        1 MOL     -0.049513
    154 H72        -9.2170    1.1730    3.2950 hc        1 MOL     -0.049513
    155 H73        -7.9680    1.4900    5.4800 hc        1 MOL     -0.013065
    156 H74        -7.0510    0.1080    5.0050 hc        1 MOL     -0.013065
    157 H75        -8.8220   -0.2500    6.7130 hx        1 MOL      0.048821
    158 H76        -8.9090   -1.3450    5.3720 hx        1 MOL      0.048821
    159 H77       -10.6850    1.0160    5.7780 hn        1 MOL      0.282426
    160 H78       -10.8940   -0.0580    4.5180 hn        1 MOL      0.282426
    161 H79       -11.0950   -0.5860    5.9520 hn        1 MOL      0.282426
    162 N14        -5.0590    1.9880    0.1180 n         1 MOL     -0.027641
    163 C49        -4.1680    2.7700   -0.7730 c3        1 MOL     -0.518383
    164 C50        -4.7940    3.0130   -2.1720 c         1 MOL      0.717367
    165 O22        -4.8050    4.1170   -2.6320 o         1 MOL     -0.548467
    166 C51        -2.7820    2.0690   -0.9060 c3        1 MOL      0.202588
    167 C52        -1.9690    2.1820    0.4390 c3        1 MOL     -0.123024
    168 C53        -0.7700    1.2220    0.3910 c         1 MOL      1.000154
    169 O23         0.4210    1.5890    0.6640 o         1 MOL     -0.871592
    170 O24        -0.8850    0.0300    0.1110 o         1 MOL     -0.871592
    171 H80        -4.7990    1.0280    0.2560 hn        1 MOL      0.061561
    172 H81        -4.0310    3.7230   -0.2840 h1        1 MOL      0.182158
    173 H82        -2.2230    2.6220   -1.6540 hc        1 MOL     -0.003016
    174 H83        -2.7940    1.0420   -1.2750 hc        1 MOL     -0.003016
    175 H84        -2.5630    1.9310    1.3210 hc        1 MOL      0.005952
    176 H85        -1.6410    3.2070    0.5650 hc        1 MOL      0.005952
    177 N15        -5.3460    1.8940   -2.7430 n         1 MOL     -0.348208
    178 C54        -6.1150    1.9540   -3.9960 c3        1 MOL     -0.230710
    179 H86        -6.0730    0.9850   -4.4940 h1        1 MOL      0.098558
    180 H87        -7.1520    2.2040   -3.7760 h1        1 MOL      0.098558
    181 H88        -5.6870    2.7150   -4.6490 h1        1 MOL      0.098558
    182 H89        -5.3850    1.0050   -2.2620 hn        1 MOL      0.287712
    183 Ca1         1.4700   -0.7330    1.3470 Ca        1 MOL      1.806349
    184 O25        -0.5240   -0.0520    3.3840 oh        1 MOL     -0.938668
    185 H90        -0.1210    0.7160    3.7810 ho        1 MOL      0.431318
    186 H91        -1.3210   -0.2020    3.8930 ho        1 MOL      0.431318
    187 O26         0.9050   -3.3170    2.0130 oh        1 MOL     -0.938668
    188 H92         1.8060   -3.6240    1.9610 ho        1 MOL      0.431318
    189 H93         0.5600   -3.7120    2.8150 ho        1 MOL      0.431318
@<TRIPOS>BOND
     1    1    2 1   
     2    1    4 1   
     3    1    5 1   
     4    1    6 1   
     5    2    3 2   
     6    2    7 1   
     7    7    8 1   
     8    7   15 1   
     9    8    9 1   
    10    8   11 1   
    11    8   16 1   
    12    9   10 2   
    13    9   19 1   
    14   11   12 1   
    15   11   17 1   
    16   11   18 1   
    17   12   13 1   
    18   12   14 1   
    19   19   20 1   
    20   19   28 1   
    21   20   21 1   
    22   20   23 1   
    23   20   29 1   
    24   21   22 2   
    25   21   41 1   
    26   23   24 1   
    27   23   30 1   
    28   23   31 1   
    29   24   25 1   
    30   24   32 1   
    31   24   33 1   
    32   25   26 1   
    33   25   34 1   
    34   25   35 1   
    35   26   27 1   
    36   26   36 1   
    37   26   37 1   
    38   27   38 1   
    39   27   39 1   
    40   27   40 1   
    41   41   42 1   
    42   41   49 1   
    43   42   43 1   
    44   42   45 1   
    45   42   50 1   
    46   43   44 2   
    47   43   53 1   
    48   45   46 1   
    49   45   51 1   
    50   45   52 1   
    51   46   47 1   
    52   46   48 1   
    53   53   54 1   
    54   53   57 1   
    55   54   55 1   
    56   54   58 1   
    57   54   59 1   
    58   55   56 2   
    59   55   60 1   
    60   60   61 1   
    61   60   68 1   
    62   61   62 1   
    63   61   64 1   
    64   61   69 1   
    65   62   63 2   
    66   62   72 1   
    67   64   65 1   
    68   64   70 1   
    69   64   71 1   
    70   65   66 1   
    71   65   67 1   
    72   72   73 1   
    73   72   76 1   
    74   73   74 1   
    75   73   77 1   
    76   73   78 1   
    77   74   75 2   
    78   74   79 1   
    79   79   80 1   
    80   79   86 1   
    81   80   81 1   
    82   80   83 1   
    83   80   87 1   
    84   81   82 2   
    85   81   93 1   
    86   83   84 1   
    87   83   85 1   
    88   83   88 1   
    89   84   90 1   
    90   84   91 1   
    91   84   92 1   
    92   85   89 1   
    93   93   94 1   
    94   93  101 1   
    95   94   95 1   
    96   94   97 1   
    97   94  102 1   
    98   95   96 2   
    99   95  112 1   
   100   97   98 1   
   101   97   99 1   
   102   97  103 1   
   103   98  100 1   
   104   98  104 1   
   105   98  105 1   
   106   99  106 1   
   107   99  107 1   
   108   99  108 1   
   109  100  109 1   
   110  100  110 1   
   111  100  111 1   
   112  112  113 1   
   113  112  119 1   
   114  113  114 1   
   115  113  116 1   
   116  113  120 1   
   117  114  115 2   
   118  114  126 1   
   119  116  117 1   
   120  116  118 1   
   121  116  121 1   
   122  117  123 1   
   123  117  124 1   
   124  117  125 1   
   125  118  122 1   
   126  126  127 1   
   127  126  133 1   
   128  127  128 1   
   129  127  130 1   
   130  127  134 1   
   131  128  129 2   
   132  128  140 1   
   133  130  131 1   
   134  130  132 1   
   135  130  135 1   
   136  131  137 1   
   137  131  138 1   
   138  131  139 1   
   139  132  136 1   
   140  140  141 1   
   141  140  149 1   
   142  141  142 1   
   143  141  144 1   
   144  141  150 1   
   145  142  143 2   
   146  142  162 1   
   147  144  145 1   
   148  144  151 1   
   149  144  152 1   
   150  145  146 1   
   151  145  153 1   
   152  145  154 1   
   153  146  147 1   
   154  146  155 1   
   155  146  156 1   
   156  147  148 1   
   157  147  157 1   
   158  147  158 1   
   159  148  159 1   
   160  148  160 1   
   161  148  161 1   
   162  162  163 1   
   163  162  171 1   
   164  163  164 1   
   165  163  166 1   
   166  163  172 1   
   167  164  165 2   
   168  164  177 1   
   169  166  167 1   
   170  166  173 1   
   171  166  174 1   
   172  167  168 1   
   173  167  175 1   
   174  167  176 1   
   175  168  169 1   
   176  168  170 1   
   177  177  178 1   
   178  177  182 1   
   179  178  179 1   
   180  178  180 1   
   181  178  181 1   
   182  184  185 1   
   183  184  186 1   
   184  187  188 1   
   185  187  189 1   
@<TRIPOS>SUBSTRUCTURE
     1 MOL         1 TEMP              0 ****  ****    0 ROOT
