@<TRIPOS>MOLECULE
MOL
  179   176     1     0     0
SMALL
resp


@<TRIPOS>ATOM
      1 C1          2.5910    3.0010    4.6200 c3        1 MOL     -0.494961
      2 C2          1.8550    2.9200    3.3250 c         1 MOL      0.680757
      3 O1          2.4890    2.8420    2.2940 o         1 MOL     -0.564394
      4 H1          3.5240    3.5470    4.4740 hc        1 MOL      0.128671
      5 H2          1.9780    3.5210    5.3560 hc        1 MOL      0.128671
      6 H3          2.8130    1.9950    4.9760 hc        1 MOL      0.128671
      7 N1          0.5070    2.8810    3.3710 n         1 MOL     -0.593680
      8 C3         -0.4520    2.6870    2.2070 c3        1 MOL      0.156291
      9 C4         -0.8010    4.0110    1.5490 c         1 MOL      0.433766
     10 O2         -1.8010    4.7330    1.7320 o         1 MOL     -0.453832
     11 C5         -1.7080    1.9330    2.6160 c3        1 MOL     -0.069377
     12 C6         -2.7780    1.6720    1.5140 c         1 MOL      0.500940
     13 O3         -3.9830    1.5330    1.8200 o         1 MOL     -0.592660
     14 O4         -2.3380    1.7200    0.3100 o         1 MOL     -0.592660
     15 H4          0.0760    2.7970    4.2880 hn        1 MOL      0.318356
     16 H5          0.0180    2.0400    1.4740 h1        1 MOL      0.074827
     17 H6         -2.2120    2.4760    3.4270 hc        1 MOL      0.027880
     18 H7         -1.4220    1.0140    3.1150 hc        1 MOL      0.027880
     19 N2          0.2240    4.4890    0.8000 n         1 MOL     -0.470751
     20 C7          0.0990    5.8050    0.1440 c3        1 MOL     -0.027742
     21 C8         -0.9810    5.9670   -0.9280 c         1 MOL      0.402867
     22 O5         -1.4670    7.0410   -1.2400 o         1 MOL     -0.518095
     23 C9          1.4230    6.3520   -0.3320 c3        1 MOL      0.091250
     24 C10         2.3540    6.7350    0.7600 c3        1 MOL      0.146820
     25 C11         3.7140    7.1620    0.2030 c3        1 MOL     -0.298563
     26 C12         4.7180    7.7250    1.2040 c3        1 MOL      0.074844
     27 N3          5.0380    6.7390    2.3120 n4        1 MOL     -0.449244
     28 H8          1.1040    3.9810    0.7240 hn        1 MOL      0.363501
     29 H9         -0.1160    6.5740    0.8870 h1        1 MOL      0.089887
     30 H10         1.2110    7.2360   -0.9270 hc        1 MOL      0.002757
     31 H11         1.8930    5.6500   -1.0260 hc        1 MOL      0.002757
     32 H12         2.5070    5.8420    1.3460 hc        1 MOL     -0.030773
     33 H13         1.8260    7.5340    1.2850 hc        1 MOL     -0.030773
     34 H14         3.4260    7.9200   -0.5230 hc        1 MOL      0.118153
     35 H15         4.2240    6.2960   -0.2200 hc        1 MOL      0.118153
     36 H16         4.3640    8.6420    1.6690 hx        1 MOL      0.090230
     37 H17         5.5720    8.0850    0.6370 hx        1 MOL      0.090230
     38 H18         5.0940    5.8020    1.9320 hn        1 MOL      0.356363
     39 H19         5.9240    7.0380    2.6990 hn        1 MOL      0.356363
     40 H20         4.2690    6.7850    2.9630 hn        1 MOL      0.356363
     41 N4         -1.3060    4.8840   -1.6600 n         1 MOL     -0.231851
     42 C13        -2.3150    4.9250   -2.6000 c3        1 MOL      0.011506
     43 C14        -3.6920    4.9160   -1.9200 c         1 MOL      0.401392
     44 O6         -4.7040    5.3860   -2.4960 o         1 MOL     -0.542060
     45 C15        -2.2800    3.8760   -3.6920 c3        1 MOL     -0.390581
     46 C16        -2.0610    2.4370   -3.2380 c         1 MOL      0.889478
     47 O7         -2.9580    1.8020   -2.7460 o         1 MOL     -0.793723
     48 O8         -0.9160    1.9370   -3.2040 o         1 MOL     -0.793723
     49 H21        -0.9680    3.9940   -1.3380 hn        1 MOL      0.228100
     50 H22        -2.1400    5.8690   -3.1130 h1        1 MOL      0.130980
     51 H23        -1.5070    4.1440   -4.4260 hc        1 MOL      0.098919
     52 H24        -3.1940    3.9500   -4.2720 hc        1 MOL      0.098919
     53 N5         -3.8310    4.3350   -0.6770 n         1 MOL     -0.002085
     54 C17        -5.1220    4.1560    0.0720 c3        1 MOL     -0.263850
     55 C18        -5.9440    2.8890   -0.1520 c         1 MOL      0.581039
     56 O9         -7.1170    2.8190    0.2850 o         1 MOL     -0.602145
     57 H25        -3.0460    3.8670   -0.2530 hn        1 MOL      0.000603
     58 H26        -5.7390    5.0400   -0.0970 h1        1 MOL      0.134237
     59 H27        -4.8690    4.2580    1.1300 h1        1 MOL      0.134237
     60 N6         -5.5280    1.8490   -0.8600 n         1 MOL     -0.265321
     61 C19        -6.4480    0.6740   -1.2420 c3        1 MOL     -0.045136
     62 C20        -6.5940   -0.3610   -0.0750 c         1 MOL      0.343944
     63 O10        -7.2830   -1.3530   -0.2430 o         1 MOL     -0.477703
     64 C21        -5.9980   -0.1220   -2.4770 c3        1 MOL     -0.276700
     65 C22        -4.7650   -0.9950   -2.2380 c         1 MOL      0.537996
     66 N7         -4.6040   -2.0260   -3.0290 n         1 MOL     -0.627473
     67 O11        -4.0000   -0.8190   -1.3140 o         1 MOL     -0.263909
     68 H28        -4.6010    1.8050   -1.2680 hn        1 MOL      0.212052
     69 H29        -7.4580    1.0700   -1.3490 h1        1 MOL      0.146399
     70 H30        -5.6590    0.6290   -3.1900 hc        1 MOL      0.110938
     71 H31        -6.8360   -0.6860   -2.9000 hc        1 MOL      0.110938
     72 H32        -5.1170   -2.0430   -3.8980 hn        1 MOL      0.316750
     73 H33        -3.8390   -2.6740   -2.8690 hn        1 MOL      0.316750
     74 N8         -6.0310   -0.1540    1.0880 n         1 MOL     -0.195948
     75 C23        -6.0140   -1.1300    2.2240 c3        1 MOL     -0.216337
     76 C24        -4.8680   -2.1220    2.3200 c         1 MOL      0.590711
     77 O12        -4.8380   -2.9470    3.2390 o         1 MOL     -0.618827
     78 H34        -5.4350    0.6480    1.2480 hn        1 MOL      0.273858
     79 H35        -6.9430   -1.6970    2.2280 h1        1 MOL      0.122644
     80 H36        -5.9990   -0.5880    3.1780 h1        1 MOL      0.122644
     81 N9         -3.9160   -2.0660    1.4400 n         1 MOL     -0.169276
     82 C25        -2.9200   -3.0950    1.3890 c3        1 MOL      0.480402
     83 C26        -1.5330   -2.5090    1.2110 c         1 MOL      0.091037
     84 O13        -1.3450   -1.3530    0.8450 o         1 MOL     -0.517790
     85 C27        -3.1510   -4.1340    0.2250 c3        1 MOL     -0.048263
     86 C28        -4.5130   -4.8230    0.3800 ca        1 MOL      0.254535
     87 C29        -5.6260   -4.2770   -0.2090 ca        1 MOL     -0.417896
     88 C30        -4.5430   -6.1130    1.0220 ca        1 MOL     -0.417896
     89 C31        -6.8630   -4.9300   -0.0700 ca        1 MOL     -0.032722
     90 C32        -5.8370   -6.7910    1.1250 ca        1 MOL     -0.032722
     91 C33        -6.9540   -6.2240    0.5420 ca        1 MOL      0.141332
     92 O14        -8.1610   -6.8110    0.6200 oh        1 MOL     -0.437438
     93 H37        -3.9120   -1.3810    0.6960 hn        1 MOL     -0.078671
     94 H38        -2.8370   -3.7350    2.2670 h1        1 MOL     -0.025301
     95 H39        -2.3990   -4.9150    0.2750 hc        1 MOL     -0.009663
     96 H40        -3.0940   -3.7080   -0.7690 hc        1 MOL     -0.009663
     97 H41        -5.6030   -3.3350   -0.7210 ha        1 MOL      0.172119
     98 H42        -3.5970   -6.5260    1.3250 ha        1 MOL      0.172119
     99 H43        -7.7400   -4.4550   -0.4950 ha        1 MOL      0.099733
    100 H44        -5.9400   -7.7510    1.6000 ha        1 MOL      0.099733
    101 H45        -8.1070   -7.6750    1.0380 ho        1 MOL      0.348388
    102 N10        -0.4890   -3.3190    1.4990 n         1 MOL     -0.298227
    103 C34         0.9180   -2.9210    1.4640 c3        1 MOL     -0.065290
    104 C35         1.6720   -3.8750    0.6100 c         1 MOL      0.411490
    105 O15         1.7150   -5.0320    0.8850 o         1 MOL     -0.533342
    106 C36         1.5330   -2.8900    2.8790 c3        1 MOL      0.125026
    107 C37         0.6520   -2.0300    3.7780 c3        1 MOL      0.002277
    108 C38         3.0340   -2.5050    2.8660 c3        1 MOL     -0.116425
    109 C39         0.8190   -2.2450    5.2850 c3        1 MOL     -0.147920
    110 H46        -0.7330   -4.2240    1.8840 hn        1 MOL      0.275357
    111 H47         0.9550   -1.9240    1.0230 h1        1 MOL      0.099453
    112 H48         1.4280   -3.9210    3.2440 hc        1 MOL      0.000117
    113 H49        -0.3950   -2.3510    3.7100 hc        1 MOL      0.056850
    114 H50         0.8070   -0.9640    3.6410 hc        1 MOL      0.056850
    115 H51         3.1890   -1.4610    2.6000 hc        1 MOL      0.021562
    116 H52         3.4360   -2.4710    3.8740 hc        1 MOL      0.021562
    117 H53         3.6030   -3.1910    2.2410 hc        1 MOL      0.021562
    118 H54         1.8610   -2.1360    5.5610 hc        1 MOL      0.028814
    119 H55         0.1720   -1.5880    5.8640 hc        1 MOL      0.028814
    120 H56         0.5180   -3.2590    5.5560 hc        1 MOL      0.028814
    121 N11         2.4480   -3.3900   -0.3630 n         1 MOL     -0.177538
    122 C40         3.4230   -4.2360   -1.0820 c3        1 MOL     -0.037191
    123 C41         4.8930   -3.9110   -0.6290 c         1 MOL      0.548334
    124 O16         5.0280   -2.9100    0.0860 o         1 MOL     -0.452904
    125 C42         3.1940   -4.2280   -2.6050 c3        1 MOL     -0.114464
    126 O17         3.2850   -2.9420   -3.2660 oh        1 MOL     -0.580053
    127 H57         2.3430   -2.4250   -0.6260 hn        1 MOL      0.385197
    128 H58         3.2450   -5.2510   -0.7400 h1        1 MOL      0.073124
    129 H59         2.1880   -4.5800   -2.8300 h1        1 MOL      0.091277
    130 H60         3.8320   -4.9450   -3.1030 h1        1 MOL      0.091277
    131 H61         3.5730   -3.1210   -4.1590 ho        1 MOL      0.409783
    132 N12         5.8730   -4.7970   -0.9160 n         1 MOL     -0.529646
    133 C43         7.3260   -4.5320   -0.6860 c3        1 MOL      0.236276
    134 C44         7.7360   -3.0910   -1.0080 c         1 MOL      0.434115
    135 O18         8.3760   -2.4240   -0.2270 o         1 MOL     -0.496431
    136 C45         8.1660   -5.5730   -1.4640 c3        1 MOL     -0.239798
    137 H62         5.6960   -5.6730   -1.3980 hn        1 MOL      0.308655
    138 H63         7.5760   -4.6880    0.3650 h1        1 MOL      0.049100
    139 H64         8.1160   -6.5420   -0.9670 hc        1 MOL      0.073571
    140 H65         7.7770   -5.6370   -2.4770 hc        1 MOL      0.073571
    141 H66         9.1970   -5.2480   -1.5990 hc        1 MOL      0.073571
    142 N13         7.3990   -2.5640   -2.2120 n         1 MOL     -0.427448
    143 C46         7.4690   -1.1600   -2.6400 c3        1 MOL      0.228604
    144 C47         7.0900   -0.0540   -1.6390 c         1 MOL      0.339828
    145 O19         7.7180    1.0120   -1.4620 o         1 MOL     -0.502224
    146 C48         6.7160   -1.0630   -3.9640 c3        1 MOL     -0.387996
    147 H67         6.8970   -3.1740   -2.8400 hn        1 MOL      0.243170
    148 H68         8.4630   -0.8060   -2.8810 h1        1 MOL      0.042267
    149 H69         7.1020   -1.8170   -4.6490 hc        1 MOL      0.103375
    150 H70         5.6260   -1.1230   -3.8430 hc        1 MOL      0.103375
    151 H71         6.9600   -0.0890   -4.3600 hc        1 MOL      0.103375
    152 N14         5.9450   -0.2820   -1.0030 n         1 MOL     -0.099993
    153 C49         5.3410    0.6960   -0.0720 c3        1 MOL     -0.052626
    154 C50         5.9810    0.6850    1.3090 c         1 MOL      0.378470
    155 O20         6.3690    1.7840    1.7740 o         1 MOL     -0.556686
    156 C51         3.8200    0.4000    0.0580 c3        1 MOL      0.078608
    157 C52         3.1000    0.4930   -1.1950 c3        1 MOL     -0.213614
    158 C53         1.6050    0.1570   -1.0790 c         1 MOL      0.949386
    159 O21         0.7260    1.0380   -0.7910 o         1 MOL     -0.881993
    160 O22         1.1280   -0.9850   -1.2940 o         1 MOL     -0.881993
    161 H72         5.4510   -1.1490   -1.1520 hn        1 MOL      0.176980
    162 H73         5.4570    1.7200   -0.4260 h1        1 MOL      0.097894
    163 H74         3.3350    1.1350    0.7150 hc        1 MOL     -0.006991
    164 H75         3.7220   -0.6030    0.4590 hc        1 MOL     -0.006991
    165 H76         3.5400   -0.2150   -1.8980 hc        1 MOL      0.019719
    166 H77         3.1680    1.4760   -1.6840 hc        1 MOL      0.019719
    167 N15         6.3510   -0.4430    1.8940 n         1 MOL     -0.004007
    168 C54         7.1530   -0.5510    3.1090 c3        1 MOL     -0.347969
    169 H78         8.0710    0.0250    2.9890 h1        1 MOL      0.126768
    170 H79         6.5880   -0.1590    3.9540 h1        1 MOL      0.126768
    171 H80         7.4000   -1.5960    3.2900 h1        1 MOL      0.126768
    172 H81         5.9560   -1.2790    1.4760 hn        1 MOL      0.115255
    173 Ca1        -1.3980   -0.0330   -1.4440 Ca        1 MOL      1.825008
    174 O23        -1.5200   -0.8640   -3.9720 oh        1 MOL     -0.925019
    175 H82        -1.5440   -0.3360   -4.7700 ho        1 MOL      0.432141
    176 H83        -1.0850   -1.6730   -4.2320 ho        1 MOL      0.432141
    177 O24        -0.9390   -2.5430   -1.6620 oh        1 MOL     -0.925019
    178 H84        -1.1280   -3.4460   -1.9270 ho        1 MOL      0.432141
    179 H85         0.0040   -2.4480   -1.8100 ho        1 MOL      0.432141
@<TRIPOS>BOND
     1    1    2 1   
     2    1    4 1   
     3    1    5 1   
     4    1    6 1   
     5    2    3 2   
     6    2    7 1   
     7    7    8 1   
     8    7   15 1   
     9    8    9 1   
    10    8   11 1   
    11    8   16 1   
    12    9   10 2   
    13    9   19 1   
    14   11   12 1   
    15   11   17 1   
    16   11   18 1   
    17   12   13 1   
    18   12   14 1   
    19   19   20 1   
    20   19   28 1   
    21   20   21 1   
    22   20   23 1   
    23   20   29 1   
    24   21   22 2   
    25   21   41 1   
    26   23   24 1   
    27   23   30 1   
    28   23   31 1   
    29   24   25 1   
    30   24   32 1   
    31   24   33 1   
    32   25   26 1   
    33   25   34 1   
    34   25   35 1   
    35   26   27 1   
    36   26   36 1   
    37   26   37 1   
    38   27   38 1   
    39   27   39 1   
    40   27   40 1   
    41   41   42 1   
    42   41   49 1   
    43   42   43 1   
    44   42   45 1   
    45   42   50 1   
    46   43   44 2   
    47   43   53 1   
    48   45   46 1   
    49   45   51 1   
    50   45   52 1   
    51   46   47 1   
    52   46   48 1   
    53   53   54 1   
    54   53   57 1   
    55   54   55 1   
    56   54   58 1   
    57   54   59 1   
    58   55   56 2   
    59   55   60 1   
    60   60   61 1   
    61   60   68 1   
    62   61   62 1   
    63   61   64 1   
    64   61   69 1   
    65   62   63 2   
    66   62   74 1   
    67   64   65 1   
    68   64   70 1   
    69   64   71 1   
    70   65   66 1   
    71   65   67 2   
    72   66   72 1   
    73   66   73 1   
    74   74   75 1   
    75   74   78 1   
    76   75   76 1   
    77   75   79 1   
    78   75   80 1   
    79   76   77 2   
    80   76   81 1   
    81   81   82 1   
    82   81   93 1   
    83   82   83 1   
    84   82   85 1   
    85   82   94 1   
    86   83   84 2   
    87   83  102 1   
    88   85   86 1   
    89   85   95 1   
    90   85   96 1   
    91   86   87 ar  
    92   86   88 ar  
    93   87   89 ar  
    94   87   97 1   
    95   88   90 ar  
    96   88   98 1   
    97   89   91 ar  
    98   89   99 1   
    99   90   91 ar  
   100   90  100 1   
   101   91   92 1   
   102   92  101 1   
   103  102  103 1   
   104  102  110 1   
   105  103  104 1   
   106  103  106 1   
   107  103  111 1   
   108  104  105 2   
   109  104  121 1   
   110  106  107 1   
   111  106  108 1   
   112  106  112 1   
   113  107  109 1   
   114  107  113 1   
   115  107  114 1   
   116  108  115 1   
   117  108  116 1   
   118  108  117 1   
   119  109  118 1   
   120  109  119 1   
   121  109  120 1   
   122  121  122 1   
   123  121  127 1   
   124  122  123 1   
   125  122  125 1   
   126  122  128 1   
   127  123  124 2   
   128  123  132 1   
   129  125  126 1   
   130  125  129 1   
   131  125  130 1   
   132  126  131 1   
   133  132  133 1   
   134  132  137 1   
   135  133  134 1   
   136  133  136 1   
   137  133  138 1   
   138  134  135 2   
   139  134  142 1   
   140  136  139 1   
   141  136  140 1   
   142  136  141 1   
   143  142  143 1   
   144  142  147 1   
   145  143  144 1   
   146  143  146 1   
   147  143  148 1   
   148  144  145 2   
   149  144  152 1   
   150  146  149 1   
   151  146  150 1   
   152  146  151 1   
   153  152  153 1   
   154  152  161 1   
   155  153  154 1   
   156  153  156 1   
   157  153  162 1   
   158  154  155 2   
   159  154  167 1   
   160  156  157 1   
   161  156  163 1   
   162  156  164 1   
   163  157  158 1   
   164  157  165 1   
   165  157  166 1   
   166  158  159 1   
   167  158  160 1   
   168  167  168 1   
   169  167  172 1   
   170  168  169 1   
   171  168  170 1   
   172  168  171 1   
   173  174  175 1   
   174  174  176 1   
   175  177  178 1   
   176  177  179 1   
@<TRIPOS>SUBSTRUCTURE
     1 MOL         1 TEMP              0 ****  ****    0 ROOT
