@<TRIPOS>MOLECULE
MOL
  189   185     1     0     0
SMALL
resp


@<TRIPOS>ATOM
      1 C1         -0.0790   -4.7410    4.9570 c3        1 MOL     -0.394795
      2 C2          0.6730   -3.9690    3.9050 c         1 MOL      0.725165
      3 O1          0.3870   -2.8280    3.6840 o         1 MOL     -0.582274
      4 H1         -0.2650   -5.7540    4.5990 hc        1 MOL      0.093461
      5 H2          0.5130   -4.7830    5.8710 hc        1 MOL      0.093461
      6 H3         -1.0290   -4.2490    5.1610 hc        1 MOL      0.093461
      7 N1          1.6090   -4.5970    3.2770 n         1 MOL     -0.617300
      8 C3          2.3330   -4.1190    2.1370 c3        1 MOL      0.432480
      9 C4          2.4580   -5.2030    1.0310 c         1 MOL      0.278887
     10 O2          3.2230   -6.1280    1.1920 o         1 MOL     -0.527308
     11 C5          3.6850   -3.6320    2.6700 c3        1 MOL     -0.391342
     12 C6          4.5130   -2.9390    1.5970 c         1 MOL      0.925771
     13 O3          5.6980   -2.6560    1.9190 o         1 MOL     -0.746386
     14 O4          4.1340   -2.5270    0.4840 o         1 MOL     -0.746386
     15 H4          1.6130   -5.5650    3.5750 hn        1 MOL      0.295364
     16 H5          1.8090   -3.3080    1.6350 h1        1 MOL     -0.001834
     17 H6          4.2380   -4.4950    3.0280 hc        1 MOL      0.068552
     18 H7          3.4780   -2.9530    3.4890 hc        1 MOL      0.068552
     19 N2          1.8950   -4.8550   -0.1490 n         1 MOL      0.016719
     20 C7          1.7410   -5.6500   -1.3440 c3        1 MOL     -0.255807
     21 C8          2.5710   -5.1030   -2.5140 c         1 MOL      0.584464
     22 O5          2.6660   -5.7180   -3.5290 o         1 MOL     -0.572256
     23 C9          0.2710   -5.7860   -1.7220 c3        1 MOL      0.337491
     24 C10        -0.3940   -4.4860   -2.0870 c3        1 MOL      0.157493
     25 C11        -0.5850   -6.4570   -0.6530 c3        1 MOL     -0.301829
     26 C12        -1.5470   -4.6740   -3.0740 c3        1 MOL     -0.314746
     27 H8          1.2750   -4.0590   -0.0660 hn        1 MOL      0.041003
     28 H9          1.9950   -6.7110   -1.2590 h1        1 MOL      0.098332
     29 H10         0.2190   -6.4550   -2.5770 hc        1 MOL     -0.070492
     30 H11         0.2900   -3.7970   -2.5840 hc        1 MOL      0.034548
     31 H12        -0.8030   -4.0130   -1.1990 hc        1 MOL      0.034548
     32 H13        -0.7500   -5.8590    0.2490 hc        1 MOL      0.048744
     33 H14        -1.5820   -6.6700   -1.0300 hc        1 MOL      0.048744
     34 H15        -0.1160   -7.4020   -0.3550 hc        1 MOL      0.048744
     35 H16        -2.2000   -5.5240   -2.8780 hc        1 MOL      0.059295
     36 H17        -2.1190   -3.7450   -3.1270 hc        1 MOL      0.059295
     37 H18        -1.0290   -4.8360   -4.0140 hc        1 MOL      0.059295
     38 N3          3.3780   -4.0050   -2.3380 n         1 MOL     -0.436802
     39 C13         4.2180   -3.3810   -3.4020 c3        1 MOL     -0.006922
     40 C14         5.6070   -2.8240   -2.9990 c         1 MOL      0.534966
     41 O6          6.4260   -2.5240   -3.7840 o         1 MOL     -0.546713
     42 C15         3.3530   -2.3330   -4.0840 c3        1 MOL     -0.205778
     43 C16         2.6430   -1.3660   -3.1540 c         1 MOL      0.769540
     44 O7          3.1300   -1.0110   -2.0540 o         1 MOL     -0.725025
     45 O8          1.5270   -0.9000   -3.4830 o         1 MOL     -0.725025
     46 H19         3.3880   -3.6340   -1.3960 hn        1 MOL      0.240925
     47 H20         4.4460   -4.0840   -4.2040 h1        1 MOL      0.091605
     48 H21         2.6130   -2.8600   -4.6770 hc        1 MOL      0.053507
     49 H22         3.9760   -1.7570   -4.7680 hc        1 MOL      0.053507
     50 N4          5.8610   -2.7690   -1.6670 n         1 MOL     -0.404968
     51 C17         7.1250   -2.2850   -1.1210 c3        1 MOL     -0.073421
     52 C18         7.4430   -0.8080   -1.2330 c         1 MOL      0.417163
     53 O9          8.6270   -0.4330   -1.2950 o         1 MOL     -0.601394
     54 H23         5.1370   -2.9480   -0.9840 hn        1 MOL      0.245128
     55 H24         7.9000   -2.8630   -1.6340 h1        1 MOL      0.101062
     56 H25         7.3150   -2.7590   -0.1590 h1        1 MOL      0.101062
     57 N5          6.4550    0.0990   -1.5580 n         1 MOL      0.004593
     58 C19         6.6330    1.5060   -1.8620 c3        1 MOL     -0.139397
     59 C20         6.7740    2.5130   -0.7720 c         1 MOL      0.508601
     60 O10         6.9290    3.6960   -1.0870 o         1 MOL     -0.572770
     61 C21         5.4690    1.9670   -2.7410 c3        1 MOL     -0.199544
     62 C22         4.1320    1.9940   -2.0640 c         1 MOL      0.871907
     63 O11         4.0240    1.6630   -0.8320 o         1 MOL     -0.695981
     64 O12         3.1530    2.2900   -2.8590 o         1 MOL     -0.695981
     65 H26         5.5440   -0.3200   -1.7010 hn        1 MOL      0.073850
     66 H27         7.5450    1.5800   -2.4550 h1        1 MOL      0.114878
     67 H28         5.4460    1.3870   -3.6610 hc        1 MOL      0.059716
     68 H29         5.6810    2.9820   -3.0670 hc        1 MOL      0.059716
     69 N6          6.7860    2.1750    0.4720 n         1 MOL     -0.349352
     70 C23         6.9350    3.0980    1.6000 c3        1 MOL      0.039697
     71 C24         5.7990    4.0660    1.7110 c         1 MOL      0.515659
     72 O13         6.0360    5.0620    2.3870 o         1 MOL     -0.601051
     73 H30         6.5410    1.2150    0.6810 hn        1 MOL      0.257973
     74 H31         7.8670    3.6510    1.5500 h1        1 MOL      0.048207
     75 H32         6.9550    2.7160    2.6220 h1        1 MOL      0.048207
     76 N7          4.6090    3.8240    1.0680 n         1 MOL     -0.312933
     77 C25         3.3260    4.4770    1.3840 c3        1 MOL      0.101783
     78 C26         2.2940    3.5000    1.8270 c         1 MOL      0.468691
     79 O14         2.5640    2.3040    1.7840 o         1 MOL     -0.573808
     80 C27         2.7910    5.1570    0.0570 c3        1 MOL     -0.283696
     81 C28         3.8240    6.2780   -0.3560 c3        1 MOL     -0.030460
     82 C29         3.4450    7.1960   -1.4700 c         1 MOL      0.658051
     83 N8          3.9920    8.4060   -1.4930 n         1 MOL     -0.818863
     84 O15         2.6400    6.7800   -2.3210 o         1 MOL     -0.562794
     85 H33         4.5400    3.0830    0.3890 hn        1 MOL      0.191962
     86 H34         3.3910    5.1810    2.2120 h1        1 MOL      0.022877
     87 H35         1.8160    5.5780    0.2980 hc        1 MOL      0.110761
     88 H36         2.7140    4.4120   -0.7370 hc        1 MOL      0.110761
     89 H37         4.7480    5.7520   -0.5910 hc        1 MOL      0.020373
     90 H38         3.8920    6.9710    0.4890 hc        1 MOL      0.020373
     91 H39         4.7120    8.6100   -0.8220 hn        1 MOL      0.355466
     92 H40         3.7130    9.0670   -2.1990 hn        1 MOL      0.355466
     93 N9          1.0690    3.9350    2.1230 n         1 MOL     -0.259401
     94 C30        -0.1360    3.1030    2.3260 c3        1 MOL     -0.177791
     95 C31        -1.2650    3.4800    1.3910 c         1 MOL      0.472097
     96 O16        -1.6510    4.7130    1.3060 o         1 MOL     -0.573414
     97 C32        -0.7020    3.2420    3.8110 c3        1 MOL      0.312722
     98 C33        -1.6590    2.1070    4.0990 c3        1 MOL     -0.289556
     99 C34         0.4300    3.1150    4.8440 c3        1 MOL     -0.289556
    100 H41         1.0390    4.9440    2.1120 hn        1 MOL      0.230435
    101 H42         0.1130    2.0490    2.1910 h1        1 MOL      0.183949
    102 H43        -1.2460    4.1510    4.0650 hc        1 MOL     -0.041946
    103 H44        -2.6010    2.3060    3.5910 hc        1 MOL      0.055447
    104 H45        -1.2240    1.1430    3.8100 hc        1 MOL      0.055447
    105 H46        -1.8210    2.0370    5.1700 hc        1 MOL      0.055447
    106 H47         1.1570    3.8760    4.5560 hc        1 MOL      0.055447
    107 H48         0.0300    3.3950    5.8130 hc        1 MOL      0.055447
    108 H49         0.8430    2.1030    4.8750 hc        1 MOL      0.055447
    109 N10        -1.5580    2.5610    0.4800 n         1 MOL     -0.333597
    110 C35        -2.7690    2.5420   -0.3210 c3        1 MOL      0.133066
    111 C36        -4.0050    2.2960    0.5260 c         1 MOL      0.255118
    112 O17        -3.9340    1.5060    1.4480 o         1 MOL     -0.258329
    113 C37        -2.6380    1.4660   -1.4470 c3        1 MOL     -0.461968
    114 C38        -3.8760    1.4380   -2.4010 c         1 MOL      0.807447
    115 N11        -4.3670    2.5330   -2.8480 n         1 MOL     -0.778275
    116 O18        -4.5390    0.4060   -2.5770 o         1 MOL     -0.620692
    117 H50        -1.1950    1.6180    0.5210 hn        1 MOL      0.273489
    118 H51        -2.8500    3.4840   -0.8640 h1        1 MOL      0.070078
    119 H52        -2.5140    0.5080   -0.9480 hc        1 MOL      0.163935
    120 H53        -1.7150    1.5310   -2.0350 hc        1 MOL      0.163935
    121 H54        -3.9740    3.4080   -2.5400 hn        1 MOL      0.326920
    122 H55        -5.2320    2.5200   -3.3630 hn        1 MOL      0.326920
    123 N12        -5.2160    2.7280    0.0740 n         1 MOL     -0.314636
    124 C39        -6.4840    2.4050    0.8190 c3        1 MOL      0.164437
    125 C40        -6.6900    0.8930    0.9740 c         1 MOL      0.280142
    126 O19        -7.0870    0.4650    2.0450 o         1 MOL     -0.521079
    127 C41        -7.6390    3.1870    0.1140 c3        1 MOL     -0.203124
    128 C42        -7.7840    2.9110   -1.3750 ca        1 MOL      0.466622
    129 C43        -8.4290    1.7480   -1.9050 ca        1 MOL     -0.558135
    130 C44        -7.5450    3.9560   -2.3000 ca        1 MOL     -0.558135
    131 C45        -8.8360    1.6120   -3.2460 ca        1 MOL     -0.016372
    132 C46        -7.8170    3.7640   -3.6550 ca        1 MOL     -0.016372
    133 C47        -8.4370    2.6130   -4.1670 ca        1 MOL      0.163828
    134 O20        -8.6150    2.5180   -5.4530 oh        1 MOL     -0.383259
    135 H56        -5.2510    3.4600   -0.6210 hn        1 MOL      0.155145
    136 H57        -6.4910    2.7990    1.8310 h1        1 MOL      0.044807
    137 H58        -7.6930    4.2640    0.2200 hc        1 MOL      0.058979
    138 H59        -8.5490    2.8640    0.6210 hc        1 MOL      0.058979
    139 H60        -8.9050    1.0930   -1.1910 ha        1 MOL      0.210232
    140 H61        -7.0810    4.8560   -1.9360 ha        1 MOL      0.210232
    141 H62        -9.4350    0.8000   -3.6470 ha        1 MOL      0.104284
    142 H63        -7.5920    4.4790   -4.4320 ha        1 MOL      0.104284
    143 H64        -8.1970    3.2310   -5.9370 ho        1 MOL      0.301952
    144 N13        -6.3490    0.0380   -0.0370 n         1 MOL     -0.001581
    145 C48        -6.4930   -1.4310    0.0900 c3        1 MOL     -0.246532
    146 C49        -5.4490   -2.0740    1.0430 c         1 MOL      0.487614
    147 O21        -5.6620   -3.1840    1.4990 o         1 MOL     -0.521732
    148 C50        -6.2730   -2.0440   -1.2610 c3        1 MOL      0.104318
    149 C51        -6.9420   -3.4480   -1.5120 c3        1 MOL     -0.204787
    150 C52        -8.4310   -3.4610   -1.1280 c         1 MOL      0.563488
    151 O22        -8.8150   -3.8150    0.0080 o         1 MOL     -0.688795
    152 O23        -9.2630   -2.8880   -1.9170 o         1 MOL     -0.688795
    153 H65        -6.2300    0.3610   -0.9870 hn        1 MOL      0.333553
    154 H66        -7.4660   -1.7200    0.4820 h1        1 MOL      0.190495
    155 H67        -5.2290   -2.0090   -1.5640 hc        1 MOL      0.005148
    156 H68        -6.7440   -1.3790   -1.9810 hc        1 MOL      0.005148
    157 H69        -6.3980   -4.2120   -0.9540 hc        1 MOL      0.022459
    158 H70        -6.8120   -3.6470   -2.5760 hc        1 MOL      0.022459
    159 N14        -4.4220   -1.3430    1.4740 n         1 MOL     -0.143279
    160 C53        -3.5010   -1.7860    2.5470 c3        1 MOL     -0.034642
    161 C54        -3.9460   -1.1840    3.8770 c         1 MOL      0.443337
    162 O24        -3.8180   -1.8280    4.8730 o         1 MOL     -0.552738
    163 C55        -2.1100   -1.1720    2.2240 c3        1 MOL      0.118057
    164 C56        -1.5780   -1.8280    0.9270 c3        1 MOL     -0.295055
    165 C57        -0.1360   -1.2900    0.6270 c         1 MOL      0.964563
    166 O25         0.5930   -1.9830   -0.0640 o         1 MOL     -0.808093
    167 O26         0.2100   -0.1750    1.0840 o         1 MOL     -0.808093
    168 H71        -4.3280   -0.4370    1.0380 hn        1 MOL     -0.065502
    169 H72        -3.4300   -2.8690    2.5840 h1        1 MOL      0.088599
    170 H73        -1.4210   -1.3610    3.0350 hc        1 MOL      0.023685
    171 H74        -2.1720   -0.0990    2.0400 hc        1 MOL      0.023685
    172 H75        -2.2400   -1.6960    0.0690 hc        1 MOL      0.046735
    173 H76        -1.4090   -2.8710    1.1660 hc        1 MOL      0.046735
    174 N15        -4.5120    0.0390    3.9160 n         1 MOL     -0.112828
    175 C58        -4.8380    0.8310    5.1410 c3        1 MOL     -0.193493
    176 H77        -4.4770    1.8530    5.0180 h1        1 MOL      0.067528
    177 H78        -5.9170    0.8420    5.2900 h1        1 MOL      0.067528
    178 H79        -4.3550    0.3780    6.0070 h1        1 MOL      0.067528
    179 H80        -4.9000    0.5090    3.1120 hn        1 MOL      0.167111
    180 Ca1         2.7720   -0.0910    0.3290 Ca        1 MOL      1.735300
    181 O27         2.5550   -0.5970    3.1110 oh        1 MOL     -0.928259
    182 H81         1.7730   -1.1060    3.3190 ho        1 MOL      0.431350
    183 H82         2.9360   -0.3720    3.9690 ho        1 MOL      0.431350
    184 O28         1.1870    1.2880   -1.5310 oh        1 MOL     -0.928259
    185 H83         0.8400    0.6550   -2.1450 ho        1 MOL      0.431350
    186 H84         1.8560    1.7740   -2.0140 ho        1 MOL      0.431350
    187 O29         5.3830   -0.1100    1.8810 oh        1 MOL     -0.928259
    188 H85         5.1340    0.2000    2.7460 ho        1 MOL      0.431350
    189 H86         5.4310   -1.0680    1.9640 ho        1 MOL      0.431350
@<TRIPOS>BOND
     1    1    2 1   
     2    1    4 1   
     3    1    5 1   
     4    1    6 1   
     5    2    3 2   
     6    2    7 1   
     7    7    8 1   
     8    7   15 1   
     9    8    9 1   
    10    8   11 1   
    11    8   16 1   
    12    9   10 2   
    13    9   19 1   
    14   11   12 1   
    15   11   17 1   
    16   11   18 1   
    17   12   13 1   
    18   12   14 1   
    19   19   20 1   
    20   19   27 1   
    21   20   21 1   
    22   20   23 1   
    23   20   28 1   
    24   21   22 2   
    25   21   38 1   
    26   23   24 1   
    27   23   25 1   
    28   23   29 1   
    29   24   26 1   
    30   24   30 1   
    31   24   31 1   
    32   25   32 1   
    33   25   33 1   
    34   25   34 1   
    35   26   35 1   
    36   26   36 1   
    37   26   37 1   
    38   38   39 1   
    39   38   46 1   
    40   39   40 1   
    41   39   42 1   
    42   39   47 1   
    43   40   41 2   
    44   40   50 1   
    45   42   43 1   
    46   42   48 1   
    47   42   49 1   
    48   43   44 1   
    49   43   45 1   
    50   50   51 1   
    51   50   54 1   
    52   51   52 1   
    53   51   55 1   
    54   51   56 1   
    55   52   53 2   
    56   52   57 1   
    57   57   58 1   
    58   57   65 1   
    59   58   59 1   
    60   58   61 1   
    61   58   66 1   
    62   59   60 2   
    63   59   69 1   
    64   61   62 1   
    65   61   67 1   
    66   61   68 1   
    67   62   63 1   
    68   62   64 1   
    69   69   70 1   
    70   69   73 1   
    71   70   71 1   
    72   70   74 1   
    73   70   75 1   
    74   71   72 2   
    75   71   76 1   
    76   76   77 1   
    77   76   85 1   
    78   77   78 1   
    79   77   80 1   
    80   77   86 1   
    81   78   79 2   
    82   78   93 1   
    83   80   81 1   
    84   80   87 1   
    85   80   88 1   
    86   81   82 1   
    87   81   89 1   
    88   81   90 1   
    89   82   83 1   
    90   82   84 2   
    91   83   91 1   
    92   83   92 1   
    93   93   94 1   
    94   93  100 1   
    95   94   95 1   
    96   94   97 1   
    97   94  101 1   
    98   95   96 2   
    99   95  109 1   
   100   97   98 1   
   101   97   99 1   
   102   97  102 1   
   103   98  103 1   
   104   98  104 1   
   105   98  105 1   
   106   99  106 1   
   107   99  107 1   
   108   99  108 1   
   109  109  110 1   
   110  109  117 1   
   111  110  111 1   
   112  110  113 1   
   113  110  118 1   
   114  111  112 2   
   115  111  123 1   
   116  113  114 1   
   117  113  119 1   
   118  113  120 1   
   119  114  115 1   
   120  114  116 2   
   121  115  121 1   
   122  115  122 1   
   123  123  124 1   
   124  123  135 1   
   125  124  125 1   
   126  124  127 1   
   127  124  136 1   
   128  125  126 2   
   129  125  144 1   
   130  127  128 1   
   131  127  137 1   
   132  127  138 1   
   133  128  129 ar  
   134  128  130 ar  
   135  129  131 ar  
   136  129  139 1   
   137  130  132 ar  
   138  130  140 1   
   139  131  133 ar  
   140  131  141 1   
   141  132  133 ar  
   142  132  142 1   
   143  133  134 1   
   144  134  143 1   
   145  144  145 1   
   146  144  153 1   
   147  145  146 1   
   148  145  148 1   
   149  145  154 1   
   150  146  147 2   
   151  146  159 1   
   152  148  149 1   
   153  148  155 1   
   154  148  156 1   
   155  149  150 1   
   156  149  157 1   
   157  149  158 1   
   158  150  151 1   
   159  150  152 1   
   160  159  160 1   
   161  159  168 1   
   162  160  161 1   
   163  160  163 1   
   164  160  169 1   
   165  161  162 2   
   166  161  174 1   
   167  163  164 1   
   168  163  170 1   
   169  163  171 1   
   170  164  165 1   
   171  164  172 1   
   172  164  173 1   
   173  165  166 1   
   174  165  167 1   
   175  174  175 1   
   176  174  179 1   
   177  175  176 1   
   178  175  177 1   
   179  175  178 1   
   180  181  182 1   
   181  181  183 1   
   182  184  185 1   
   183  184  186 1   
   184  187  188 1   
   185  187  189 1   
@<TRIPOS>SUBSTRUCTURE
     1 MOL         1 TEMP              0 ****  ****    0 ROOT
