@<TRIPOS>MOLECULE
MOL
  179   176     1     0     0
SMALL
resp


@<TRIPOS>ATOM
      1 C1          2.0210    1.1000    5.8030 c3        1 MOL     -0.331706
      2 C2          1.4550    1.1660    4.3180 c         1 MOL      0.588086
      3 O1          2.2720    1.2840    3.3920 o         1 MOL     -0.569605
      4 H1          2.0880    0.0590    6.1200 hc        1 MOL      0.093616
      5 H2          3.0120    1.5540    5.8340 hc        1 MOL      0.093616
      6 H3          1.3530    1.6410    6.4720 hc        1 MOL      0.093616
      7 N1          0.1670    1.2660    4.1570 n         1 MOL     -0.365954
      8 C3         -0.5460    1.6700    2.9490 c3        1 MOL      0.060601
      9 C4         -0.2620    3.1050    2.4340 c         1 MOL      0.447887
     10 O2         -1.0200    4.0620    2.7000 o         1 MOL     -0.467246
     11 C5         -2.0390    1.4290    3.1550 c3        1 MOL     -0.138989
     12 C6         -2.8670    1.4720    1.8590 c         1 MOL      0.424472
     13 O3         -4.0780    1.3370    1.9740 o         1 MOL     -0.590442
     14 O4         -2.2950    1.5260    0.8110 o         1 MOL     -0.590442
     15 H4         -0.4260    1.0770    4.9440 hn        1 MOL      0.257640
     16 H5         -0.3070    0.9590    2.1660 h1        1 MOL     -0.019097
     17 H6         -2.4410    2.1740    3.8380 hc        1 MOL      0.056105
     18 H7         -2.2040    0.4430    3.5970 hc        1 MOL      0.056105
     19 N2          0.9580    3.2560    1.9140 n         1 MOL     -0.305215
     20 C7          1.4120    4.5940    1.4200 c3        1 MOL     -0.105690
     21 C8          0.4700    5.2900    0.4710 c         1 MOL      0.373092
     22 O5          0.4140    6.5560    0.5670 o         1 MOL     -0.535209
     23 C9          2.7940    4.3310    0.7030 c3        1 MOL     -0.036444
     24 C10         3.4150    5.5510    0.0790 c3        1 MOL     -0.091366
     25 C11         4.8770    5.3110   -0.2720 c3        1 MOL     -0.031592
     26 C12         5.1780    6.3240   -1.4170 c3        1 MOL      0.105352
     27 N3          6.5630    6.2060   -1.9980 n4        1 MOL     -0.481011
     28 H8          1.5850    2.4770    1.8430 hn        1 MOL      0.291598
     29 H9          1.4930    5.1990    2.3150 h1        1 MOL      0.131373
     30 H10         2.7040    3.5270   -0.0210 hc        1 MOL      0.102067
     31 H11         3.4070    3.9630    1.5290 hc        1 MOL      0.102067
     32 H12         3.4010    6.2700    0.8950 hc        1 MOL      0.047021
     33 H13         2.8400    5.9100   -0.7650 hc        1 MOL      0.047021
     34 H14         4.9920    4.2650   -0.5460 hc        1 MOL      0.036845
     35 H15         5.5290    5.3980    0.5990 hc        1 MOL      0.036845
     36 H16         5.0760    7.3250   -1.0110 hx        1 MOL      0.071109
     37 H17         4.3910    6.2420   -2.1750 hx        1 MOL      0.071109
     38 H18         6.7450    5.2770   -2.3520 hn        1 MOL      0.361024
     39 H19         6.7280    6.9210   -2.6810 hn        1 MOL      0.361024
     40 H20         7.1470    6.4960   -1.2210 hn        1 MOL      0.361024
     41 N4         -0.2590    4.5580   -0.4650 n         1 MOL     -0.121213
     42 C13        -1.2420    5.2260   -1.4270 c3        1 MOL      0.068460
     43 C14        -2.7480    5.1570   -1.0760 c         1 MOL      0.536055
     44 O6         -3.5820    5.6520   -1.8080 o         1 MOL     -0.561049
     45 C15        -0.9230    4.7570   -2.8780 c3        1 MOL     -0.216507
     46 C16        -1.0710    3.2510   -3.1360 c         1 MOL      0.841983
     47 O7         -1.6830    2.5870   -2.2790 o         1 MOL     -0.734505
     48 O8         -0.5240    2.7420   -4.1090 o         1 MOL     -0.734505
     49 H21        -0.2250    3.5490   -0.5150 hn        1 MOL      0.052396
     50 H22        -1.1550    6.3090   -1.3980 h1        1 MOL      0.066484
     51 H23         0.1170    5.0580   -3.0080 hc        1 MOL      0.040490
     52 H24        -1.6150    5.2940   -3.5260 hc        1 MOL      0.040490
     53 N5         -3.0050    4.6740    0.1250 n         1 MOL     -0.307401
     54 C17        -4.2860    4.6350    0.8810 c3        1 MOL     -0.104987
     55 C18        -5.3780    3.7810    0.2000 c         1 MOL      0.552249
     56 O9         -6.5050    3.9940    0.5360 o         1 MOL     -0.561314
     57 H25        -2.2090    4.2600    0.5820 hn        1 MOL      0.185984
     58 H26        -4.6760    5.6110    1.1580 h1        1 MOL      0.113283
     59 H27        -4.1070    4.1590    1.8390 h1        1 MOL      0.113283
     60 N6         -5.0410    2.7920   -0.7060 n         1 MOL     -0.252404
     61 C19        -5.9090    1.9720   -1.4620 c3        1 MOL     -0.064707
     62 C20        -6.5670    0.7900   -0.7310 c         1 MOL      0.339249
     63 O10        -7.3490   -0.0760   -1.1930 o         1 MOL     -0.489140
     64 C21        -5.2350    1.4610   -2.7190 c3        1 MOL     -0.169923
     65 C22        -4.5050    0.0820   -2.8050 c         1 MOL      0.489360
     66 N7         -5.1000   -0.8550   -3.4730 n         1 MOL     -0.623984
     67 O11        -3.5240   -0.1290   -2.1000 o         1 MOL     -0.517177
     68 H28        -4.0410    2.6760   -0.7840 hn        1 MOL      0.165506
     69 H29        -6.7300    2.5990   -1.8210 h1        1 MOL      0.154225
     70 H30        -4.5260    2.2080   -3.0810 hc        1 MOL      0.080106
     71 H31        -6.0550    1.4570   -3.4390 hc        1 MOL      0.080106
     72 H32        -5.9710   -0.6320   -3.9400 hn        1 MOL      0.343384
     73 H33        -4.6090   -1.7320   -3.5950 hn        1 MOL      0.343384
     74 N8         -6.3950    0.7450    0.6160 n         1 MOL     -0.166568
     75 C23        -6.7790   -0.3450    1.5600 c3        1 MOL     -0.260628
     76 C24        -5.8870   -1.5670    1.6430 c         1 MOL      0.566751
     77 O12        -6.3300   -2.6440    2.1360 o         1 MOL     -0.541758
     78 H34        -5.8330    1.4900    1.0040 hn        1 MOL      0.249071
     79 H35        -7.7960   -0.6710    1.3690 h1        1 MOL      0.137015
     80 H36        -6.6750    0.0770    2.5650 h1        1 MOL      0.137015
     81 N9         -4.5960   -1.5200    1.1430 n         1 MOL     -0.485658
     82 C25        -3.7710   -2.6460    0.9750 c3        1 MOL      0.370113
     83 C26        -2.2120   -2.2460    1.1820 c         1 MOL      0.213804
     84 O13        -1.7710   -1.1150    1.0100 o         1 MOL     -0.335495
     85 C27        -3.9980   -3.2390   -0.4560 c3        1 MOL     -0.058586
     86 C28        -5.2590   -4.0060   -0.6930 ca        1 MOL      0.027858
     87 C29        -5.1620   -5.4190   -0.7410 ca        1 MOL     -0.180692
     88 C30        -6.4390   -3.3160   -1.0060 ca        1 MOL     -0.180692
     89 C31        -6.3050   -6.1610   -1.0420 ca        1 MOL     -0.200872
     90 C32        -7.5990   -4.1000   -1.1600 ca        1 MOL     -0.200872
     91 C33        -7.5510   -5.4850   -1.2130 ca        1 MOL      0.307775
     92 O14        -8.7220   -6.1670   -1.5440 oh        1 MOL     -0.537438
     93 H37        -4.3750   -0.6280    0.7300 hn        1 MOL      0.316189
     94 H38        -4.0450   -3.4080    1.6910 h1        1 MOL      0.008914
     95 H39        -3.1270   -3.8480   -0.6960 hc        1 MOL      0.008772
     96 H40        -3.8040   -2.4280   -1.1610 hc        1 MOL      0.008772
     97 H41        -4.2510   -5.9370   -0.4820 ha        1 MOL      0.134695
     98 H42        -6.4800   -2.2650   -1.2480 ha        1 MOL      0.134695
     99 H43        -6.3180   -7.2360   -1.0200 ha        1 MOL      0.132971
    100 H44        -8.5010   -3.5920   -1.4400 ha        1 MOL      0.132971
    101 H45        -9.4750   -5.5770   -1.4570 ho        1 MOL      0.384407
    102 N10        -1.3740   -3.2340    1.5760 n         1 MOL     -0.403273
    103 C34         0.0670   -3.0630    1.7140 c3        1 MOL     -0.013871
    104 C35         0.8130   -3.8760    0.6140 c         1 MOL      0.502742
    105 O15         0.3430   -4.9780    0.2970 o         1 MOL     -0.572874
    106 C36         0.4580   -3.4590    3.1580 c3        1 MOL      0.052448
    107 C37        -0.3360   -2.5820    4.2320 c3        1 MOL      0.033014
    108 C38         1.9360   -3.1110    3.3310 c3        1 MOL     -0.246515
    109 C39        -0.1410   -3.2180    5.5800 c3        1 MOL     -0.209684
    110 H46        -1.7820   -4.0890    1.9180 hn        1 MOL      0.280197
    111 H47         0.3830   -2.0230    1.6280 h1        1 MOL      0.102199
    112 H48         0.3420   -4.5310    3.3340 hc        1 MOL      0.052677
    113 H49        -1.4230   -2.5410    4.1500 hc        1 MOL      0.030586
    114 H50         0.0120   -1.5470    4.2880 hc        1 MOL      0.030586
    115 H51         2.1090   -2.0590    3.0630 hc        1 MOL      0.057139
    116 H52         2.3410   -3.2780    4.3270 hc        1 MOL      0.057139
    117 H53         2.6170   -3.6250    2.6620 hc        1 MOL      0.057139
    118 H54         0.8830   -3.2190    5.9410 hc        1 MOL      0.048626
    119 H55        -0.6140   -2.6830    6.4100 hc        1 MOL      0.048626
    120 H56        -0.4610   -4.2610    5.6370 hc        1 MOL      0.048626
    121 N11         1.8160   -3.3480   -0.0340 n         1 MOL     -0.140197
    122 C40         2.7260   -4.1000   -0.9820 c3        1 MOL     -0.188471
    123 C41         4.2110   -3.8880   -0.7670 c         1 MOL      0.601795
    124 O16         4.6700   -3.0820    0.0450 o         1 MOL     -0.509091
    125 C42         2.4290   -3.6880   -2.4460 c3        1 MOL     -0.065172
    126 O17         2.8000   -2.3540   -2.5690 oh        1 MOL     -0.506482
    127 H57         2.0210   -2.3650    0.0480 hn        1 MOL      0.212103
    128 H58         2.6300   -5.1830   -0.8800 h1        1 MOL      0.099175
    129 H59         1.3550   -3.7240   -2.5800 h1        1 MOL      0.095708
    130 H60         2.9670   -4.3120   -3.1640 h1        1 MOL      0.095708
    131 H61         2.0770   -1.9240   -2.0910 ho        1 MOL      0.375183
    132 N12         5.1190   -4.6920   -1.3790 n         1 MOL     -0.432181
    133 C43         6.5190   -4.7390   -0.9300 c3        1 MOL      0.057370
    134 C44         7.3040   -3.3240   -1.0120 c         1 MOL      0.538336
    135 O18         8.0850   -3.0510   -0.1190 o         1 MOL     -0.532188
    136 C45         7.1970   -5.8080   -1.8190 c3        1 MOL     -0.264276
    137 H62         4.8220   -5.4050   -2.0110 hn        1 MOL      0.284582
    138 H63         6.5980   -5.0790    0.1110 h1        1 MOL      0.089290
    139 H64         6.5330   -6.6600   -1.8570 hc        1 MOL      0.079271
    140 H65         7.3220   -5.4420   -2.8380 hc        1 MOL      0.079271
    141 H66         8.2240   -6.0750   -1.5500 hc        1 MOL      0.079271
    142 N13         7.0650   -2.6190   -2.0820 n         1 MOL     -0.379433
    143 C46         7.7620   -1.3740   -2.3780 c3        1 MOL      0.103133
    144 C47         7.2360   -0.3700   -1.4180 c         1 MOL      0.383437
    145 O19         7.9880    0.5300   -1.0330 o         1 MOL     -0.538434
    146 C48         7.6760   -0.8700   -3.8450 c3        1 MOL     -0.239446
    147 H67         6.3810   -2.9980   -2.7300 hn        1 MOL      0.271662
    148 H68         8.8290   -1.5160   -2.1990 h1        1 MOL      0.095345
    149 H69         7.8950   -1.6770   -4.5380 hc        1 MOL      0.074744
    150 H70         6.6150   -0.6580   -4.0290 hc        1 MOL      0.074744
    151 H71         8.3180   -0.0040   -3.9920 hc        1 MOL      0.074744
    152 N14         6.0220   -0.4580   -0.8960 n         1 MOL     -0.156535
    153 C49         5.4600    0.4460    0.2010 c3        1 MOL     -0.211243
    154 C50         6.0900    0.0500    1.5670 c         1 MOL      0.500186
    155 O20         6.3260    0.8990    2.4290 o         1 MOL     -0.549563
    156 C51         3.9340    0.3810    0.4350 c3        1 MOL      0.308475
    157 C52         3.1690    0.6680   -0.9130 c3        1 MOL     -0.080751
    158 C53         1.7140    0.4670   -0.8410 c         1 MOL      0.585594
    159 O21         0.9610    1.4750   -0.7560 o         1 MOL     -0.610359
    160 O22         1.2550   -0.6980   -0.6080 o         1 MOL     -0.610359
    161 H72         5.4120   -1.1930   -1.2120 hn        1 MOL      0.182080
    162 H73         5.8120    1.4640    0.1110 h1        1 MOL      0.086519
    163 H74         3.6400    1.1110    1.1910 hc        1 MOL     -0.080805
    164 H75         3.6570   -0.6420    0.6690 hc        1 MOL     -0.080805
    165 H76         3.5080   -0.1140   -1.5920 hc        1 MOL     -0.038299
    166 H77         3.3630    1.7080   -1.1760 hc        1 MOL     -0.038299
    167 N15         6.2520   -1.2560    1.7720 n         1 MOL     -0.079898
    168 C54         6.7600   -1.7760    3.0000 c3        1 MOL     -0.385699
    169 H78         6.4270   -2.8070    3.1220 h1        1 MOL      0.135863
    170 H79         7.8500   -1.7450    2.9860 h1        1 MOL      0.135863
    171 H80         6.3900   -1.1750    3.8300 h1        1 MOL      0.135863
    172 H81         6.0560   -1.8740    1.0030 hn        1 MOL      0.171215
    173 Ca1        -1.2330    0.2690   -1.1300 Ca        1 MOL      1.554704
    174 O23        -1.0750   -2.2530   -1.9660 oh        1 MOL     -0.911378
    175 H82        -1.0060   -2.2650   -2.9150 ho        1 MOL      0.435870
    176 H83        -0.9170   -3.1590   -1.6990 ho        1 MOL      0.435870
    177 O24        -0.3960    0.0180   -3.7160 oh        1 MOL     -0.911378
    178 H84        -0.5260   -0.3890   -4.5660 ho        1 MOL      0.435870
    179 H85        -0.4480    0.9580   -3.8820 ho        1 MOL      0.435870
@<TRIPOS>BOND
     1    1    2 1   
     2    1    4 1   
     3    1    5 1   
     4    1    6 1   
     5    2    3 2   
     6    2    7 1   
     7    7    8 1   
     8    7   15 1   
     9    8    9 1   
    10    8   11 1   
    11    8   16 1   
    12    9   10 2   
    13    9   19 1   
    14   11   12 1   
    15   11   17 1   
    16   11   18 1   
    17   12   13 1   
    18   12   14 1   
    19   19   20 1   
    20   19   28 1   
    21   20   21 1   
    22   20   23 1   
    23   20   29 1   
    24   21   22 2   
    25   21   41 1   
    26   23   24 1   
    27   23   30 1   
    28   23   31 1   
    29   24   25 1   
    30   24   32 1   
    31   24   33 1   
    32   25   26 1   
    33   25   34 1   
    34   25   35 1   
    35   26   27 1   
    36   26   36 1   
    37   26   37 1   
    38   27   38 1   
    39   27   39 1   
    40   27   40 1   
    41   41   42 1   
    42   41   49 1   
    43   42   43 1   
    44   42   45 1   
    45   42   50 1   
    46   43   44 2   
    47   43   53 1   
    48   45   46 1   
    49   45   51 1   
    50   45   52 1   
    51   46   47 1   
    52   46   48 1   
    53   53   54 1   
    54   53   57 1   
    55   54   55 1   
    56   54   58 1   
    57   54   59 1   
    58   55   56 2   
    59   55   60 1   
    60   60   61 1   
    61   60   68 1   
    62   61   62 1   
    63   61   64 1   
    64   61   69 1   
    65   62   63 2   
    66   62   74 1   
    67   64   65 1   
    68   64   70 1   
    69   64   71 1   
    70   65   66 1   
    71   65   67 2   
    72   66   72 1   
    73   66   73 1   
    74   74   75 1   
    75   74   78 1   
    76   75   76 1   
    77   75   79 1   
    78   75   80 1   
    79   76   77 2   
    80   76   81 1   
    81   81   82 1   
    82   81   93 1   
    83   82   83 1   
    84   82   85 1   
    85   82   94 1   
    86   83   84 2   
    87   83  102 1   
    88   85   86 1   
    89   85   95 1   
    90   85   96 1   
    91   86   87 ar  
    92   86   88 ar  
    93   87   89 ar  
    94   87   97 1   
    95   88   90 ar  
    96   88   98 1   
    97   89   91 ar  
    98   89   99 1   
    99   90   91 ar  
   100   90  100 1   
   101   91   92 1   
   102   92  101 1   
   103  102  103 1   
   104  102  110 1   
   105  103  104 1   
   106  103  106 1   
   107  103  111 1   
   108  104  105 2   
   109  104  121 1   
   110  106  107 1   
   111  106  108 1   
   112  106  112 1   
   113  107  109 1   
   114  107  113 1   
   115  107  114 1   
   116  108  115 1   
   117  108  116 1   
   118  108  117 1   
   119  109  118 1   
   120  109  119 1   
   121  109  120 1   
   122  121  122 1   
   123  121  127 1   
   124  122  123 1   
   125  122  125 1   
   126  122  128 1   
   127  123  124 2   
   128  123  132 1   
   129  125  126 1   
   130  125  129 1   
   131  125  130 1   
   132  126  131 1   
   133  132  133 1   
   134  132  137 1   
   135  133  134 1   
   136  133  136 1   
   137  133  138 1   
   138  134  135 2   
   139  134  142 1   
   140  136  139 1   
   141  136  140 1   
   142  136  141 1   
   143  142  143 1   
   144  142  147 1   
   145  143  144 1   
   146  143  146 1   
   147  143  148 1   
   148  144  145 2   
   149  144  152 1   
   150  146  149 1   
   151  146  150 1   
   152  146  151 1   
   153  152  153 1   
   154  152  161 1   
   155  153  154 1   
   156  153  156 1   
   157  153  162 1   
   158  154  155 2   
   159  154  167 1   
   160  156  157 1   
   161  156  163 1   
   162  156  164 1   
   163  157  158 1   
   164  157  165 1   
   165  157  166 1   
   166  158  159 1   
   167  158  160 1   
   168  167  168 1   
   169  167  172 1   
   170  168  169 1   
   171  168  170 1   
   172  168  171 1   
   173  174  175 1   
   174  174  176 1   
   175  177  178 1   
   176  177  179 1   
@<TRIPOS>SUBSTRUCTURE
     1 MOL         1 TEMP              0 ****  ****    0 ROOT
