@<TRIPOS>MOLECULE
MOL
  189   185     1     0     0
SMALL
resp


@<TRIPOS>ATOM
      1 C1          0.4690    2.4450    5.3380 c3        1 MOL     -0.461775
      2 C2         -0.1630    2.2460    3.9550 c         1 MOL      0.735975
      3 O1          0.4340    2.5180    2.9300 o         1 MOL     -0.641680
      4 H1         -0.2010    2.0550    6.1040 hc        1 MOL      0.119014
      5 H2          1.4200    1.9140    5.3840 hc        1 MOL      0.119014
      6 H3          0.6370    3.5080    5.5120 hc        1 MOL      0.119014
      7 N1         -1.4650    1.8710    3.8500 n         1 MOL     -0.597890
      8 C3         -2.1050    1.6040    2.5540 c3        1 MOL      0.231435
      9 C4         -2.5680    2.9250    1.9200 c         1 MOL      0.374090
     10 O2         -3.5820    3.5090    2.3160 o         1 MOL     -0.552717
     11 C5         -3.2500    0.5730    2.7830 c3        1 MOL     -0.217561
     12 C6         -4.0780    0.2620    1.5490 c         1 MOL      0.736813
     13 O3         -5.2640   -0.2300    1.7270 o         1 MOL     -0.675107
     14 O4         -3.5740    0.4980    0.3910 o         1 MOL     -0.675107
     15 H4         -1.9320    1.5940    4.6990 hn        1 MOL      0.309260
     16 H5         -1.3660    1.0510    1.9610 h1        1 MOL     -0.034333
     17 H6         -3.9460    0.9170    3.5450 hc        1 MOL      0.049445
     18 H7         -2.8080   -0.3620    3.1250 hc        1 MOL      0.049445
     19 N2         -1.8140    3.4960    1.0140 n         1 MOL     -0.281498
     20 C7         -1.9410    4.8280    0.4860 c3        1 MOL     -0.094887
     21 C8         -2.9610    4.9570   -0.6700 c         1 MOL      0.529263
     22 O5         -3.2150    6.0840   -1.1660 o         1 MOL     -0.574060
     23 C9         -0.4980    5.3270    0.2110 c3        1 MOL     -0.177617
     24 C10         0.1180    6.2120    1.3750 c3        1 MOL      0.054212
     25 C11        -0.6550    7.5540    1.5960 c3        1 MOL     -0.031595
     26 C12        -0.1880    8.2280    2.8900 c3        1 MOL      0.018309
     27 N3         -0.7590    7.7140    4.1470 n4        1 MOL     -0.286520
     28 H8         -1.0900    2.9220    0.6030 hn        1 MOL      0.509601
     29 H9         -2.3580    5.3860    1.3230 h1        1 MOL      0.081460
     30 H10        -0.3910    5.8570   -0.7320 hc        1 MOL      0.077458
     31 H11         0.0440    4.3970    0.0590 hc        1 MOL      0.077458
     32 H12         1.1460    6.4280    1.0840 hc        1 MOL      0.008820
     33 H13         0.1960    5.6190    2.2890 hc        1 MOL      0.008820
     34 H14        -1.7320    7.3930    1.6570 hc        1 MOL      0.058063
     35 H15        -0.4920    8.2100    0.7420 hc        1 MOL      0.058063
     36 H16        -0.2560    9.3130    2.8160 hx        1 MOL      0.064867
     37 H17         0.8640    7.9590    2.9620 hx        1 MOL      0.064867
     38 H18        -1.6500    8.1480    4.3040 hn        1 MOL      0.310651
     39 H19        -0.8530    6.7100    4.1600 hn        1 MOL      0.310651
     40 H20        -0.2850    8.0960    4.9510 hn        1 MOL      0.310651
     41 N4         -3.5170    3.7980   -1.1780 n         1 MOL     -0.387055
     42 C13        -4.3890    3.7380   -2.3520 c3        1 MOL      0.194404
     43 C14        -5.7230    2.9460   -2.1920 c         1 MOL      0.447624
     44 O6         -6.5720    3.0370   -3.0590 o         1 MOL     -0.511984
     45 C15        -3.6590    3.2150   -3.6220 c3        1 MOL     -0.066196
     46 C16        -3.0780    1.8450   -3.5770 c         1 MOL      0.662442
     47 O7         -3.1480    1.2680   -2.4650 o         1 MOL     -0.671257
     48 O8         -2.7000    1.2180   -4.6520 o         1 MOL     -0.671257
     49 H21        -3.2640    2.8970   -0.7900 hn        1 MOL      0.129488
     50 H22        -4.7350    4.7370   -2.6410 h1        1 MOL      0.035115
     51 H23        -2.8380    3.8970   -3.8490 hc        1 MOL      0.005196
     52 H24        -4.3650    3.3030   -4.4400 hc        1 MOL      0.005196
     53 N5         -5.8970    2.2960   -1.0160 n         1 MOL     -0.348622
     54 C17        -7.1240    1.7140   -0.4510 c3        1 MOL     -0.279518
     55 C18        -7.4990    0.3540   -1.0740 c         1 MOL      0.547347
     56 O9         -8.6780   -0.0720   -0.9310 o         1 MOL     -0.599394
     57 H25        -5.0720    2.1570   -0.4560 hn        1 MOL      0.278700
     58 H26        -7.9260    2.3680   -0.7890 h1        1 MOL      0.147067
     59 H27        -7.1310    1.6030    0.6380 h1        1 MOL      0.147067
     60 N6         -6.5330   -0.4490   -1.5100 n         1 MOL     -0.293930
     61 C19        -6.7440   -1.8090   -2.0250 c3        1 MOL     -0.046733
     62 C20        -6.8390   -2.8590   -0.9060 c         1 MOL      0.510765
     63 O10        -7.1690   -3.9750   -1.1720 o         1 MOL     -0.534862
     64 C21        -5.7060   -2.0840   -3.1080 c3        1 MOL     -0.186316
     65 C22        -4.2390   -1.9600   -2.6380 c         1 MOL      0.587583
     66 O11        -3.8750   -2.0500   -1.4720 o         1 MOL     -0.593716
     67 O12        -3.3710   -1.7240   -3.4960 o         1 MOL     -0.593716
     68 H28        -5.5970   -0.0580   -1.5000 hn        1 MOL      0.273430
     69 H29        -7.7190   -1.7570   -2.5010 h1        1 MOL      0.106204
     70 H30        -5.8870   -1.3600   -3.9070 hc        1 MOL      0.076990
     71 H31        -5.9100   -3.0610   -3.5480 hc        1 MOL      0.076990
     72 N7         -6.6840   -2.4400    0.3380 n         1 MOL     -0.312709
     73 C23        -6.6810   -3.4030    1.4740 c3        1 MOL     -0.010741
     74 C24        -5.3750   -4.2050    1.6420 c         1 MOL      0.514252
     75 O13        -5.3400   -5.2560    2.2630 o         1 MOL     -0.588567
     76 H32        -6.3990   -1.4950    0.5420 hn        1 MOL      0.291352
     77 H33        -7.5440   -4.0770    1.4890 h1        1 MOL      0.055474
     78 H34        -6.8030   -2.7590    2.3470 h1        1 MOL      0.055474
     79 N8         -4.3130   -3.6930    1.0360 n         1 MOL     -0.141462
     80 C25        -2.9180   -4.2910    1.0240 c3        1 MOL     -0.116662
     81 C26        -1.8970   -3.2280    1.2340 c         1 MOL      0.685704
     82 O14        -2.0670   -2.0540    0.9940 o         1 MOL     -0.608558
     83 C27        -2.6170   -5.1030   -0.2280 c3        1 MOL      0.599951
     84 C28        -2.9490   -6.5310   -0.1200 c3        1 MOL     -0.495319
     85 O15        -3.4400   -4.6150   -1.2940 oh        1 MOL     -0.667977
     86 H35        -4.4030   -2.8360    0.5160 hn        1 MOL      0.008537
     87 H36        -2.8130   -4.9400    1.8930 h1        1 MOL      0.053734
     88 H37        -1.5650   -5.0960   -0.5020 h1        1 MOL     -0.090053
     89 H38        -3.3970   -3.6530   -1.2790 ho        1 MOL      0.460496
     90 H39        -2.2030   -7.0540    0.4700 hc        1 MOL      0.120984
     91 H40        -3.9460   -6.5840    0.3090 hc        1 MOL      0.120984
     92 H41        -2.9880   -6.8760   -1.1500 hc        1 MOL      0.120984
     93 N9         -0.7130   -3.6190    1.6700 n         1 MOL     -0.658180
     94 C29         0.5550   -2.9250    1.8100 c3        1 MOL      0.028314
     95 C30         1.6440   -3.5680    0.9170 c         1 MOL      0.446155
     96 O16         1.9260   -4.7820    1.0850 o         1 MOL     -0.555042
     97 C31         1.0170   -2.8370    3.2650 c3        1 MOL      0.280630
     98 C32         0.0830   -2.1710    4.2310 c3        1 MOL     -0.020404
     99 C33         2.4210   -2.1080    3.3330 c3        1 MOL     -0.463477
    100 C34         0.3050   -2.4530    5.7400 c3        1 MOL     -0.126525
    101 H42        -0.6290   -4.5830    1.9450 hn        1 MOL      0.297139
    102 H43         0.2670   -1.9650    1.3750 h1        1 MOL      0.134674
    103 H44         1.1790   -3.8640    3.5910 hc        1 MOL     -0.016733
    104 H45        -0.9510   -2.4790    4.0660 hc        1 MOL      0.032626
    105 H46         0.1250   -1.0940    4.0880 hc        1 MOL      0.032626
    106 H47         3.1480   -2.5380    2.6350 hc        1 MOL      0.095845
    107 H48         2.2030   -1.1070    2.9610 hc        1 MOL      0.095845
    108 H49         2.8480   -2.0250    4.3300 hc        1 MOL      0.095845
    109 H50        -0.4810   -1.9010    6.2480 hc        1 MOL      0.028135
    110 H51         0.0350   -3.4860    5.9440 hc        1 MOL      0.028135
    111 H52         1.2750   -2.2160    6.1780 hc        1 MOL      0.028135
    112 N10         2.3700   -2.7950    0.1300 n         1 MOL     -0.185854
    113 C35         3.5730   -3.1500   -0.6650 c3        1 MOL      0.010156
    114 C36         4.8830   -2.7500    0.0860 c         1 MOL      0.353310
    115 O17         4.9530   -2.0960    1.1620 o         1 MOL     -0.334425
    116 C37         3.5470   -2.3850   -2.0260 c3        1 MOL      0.081097
    117 C38         2.2640   -2.6460   -2.8820 c3        1 MOL     -0.429759
    118 O18         3.6550   -0.9580   -1.8070 oh        1 MOL     -0.448379
    119 H53         2.0140   -1.8470    0.0810 hn        1 MOL      0.201623
    120 H54         3.5190   -4.2020   -0.9490 h1        1 MOL      0.094459
    121 H55         4.4010   -2.7700   -2.5690 h1        1 MOL      0.056708
    122 H56         3.2460   -0.6230   -2.6020 ho        1 MOL      0.385503
    123 H57         2.4490   -2.3580   -3.9140 hc        1 MOL      0.140931
    124 H58         1.9620   -3.6850   -2.7960 hc        1 MOL      0.140931
    125 H59         1.4210   -2.0980   -2.4670 hc        1 MOL      0.140931
    126 N11         6.0210   -3.2340   -0.4130 n         1 MOL     -0.269220
    127 C39         7.2970   -2.8860    0.0750 c3        1 MOL     -0.152337
    128 C40         7.6170   -1.3830   -0.0050 c         1 MOL      0.420770
    129 O19         8.2980   -0.8210    0.8510 o         1 MOL     -0.493755
    130 C41         8.3780   -3.7340   -0.6410 c3        1 MOL      0.240000
    131 C42         8.3220   -5.1710   -0.2150 c3        1 MOL     -0.342315
    132 O20         8.2280   -3.8520   -1.9770 oh        1 MOL     -0.626110
    133 H60         6.0010   -4.0010   -1.0710 hn        1 MOL      0.270671
    134 H61         7.3210   -3.1520    1.1390 h1        1 MOL      0.140575
    135 H62         9.3290   -3.2470   -0.3940 h1        1 MOL      0.059590
    136 H63         8.9020   -4.4780   -2.2440 ho        1 MOL      0.425746
    137 H64         8.0490   -5.2420    0.8390 hc        1 MOL      0.097216
    138 H65         7.6670   -5.8050   -0.8130 hc        1 MOL      0.097216
    139 H66         9.2940   -5.6770   -0.2050 hc        1 MOL      0.097216
    140 N12         7.0730   -0.7040   -1.0130 n         1 MOL     -0.163804
    141 C43         7.2370    0.7390   -1.0850 c3        1 MOL     -0.125558
    142 C44         6.3080    1.3900   -0.0970 c         1 MOL      0.299549
    143 O21         6.6290    2.3310    0.5680 o         1 MOL     -0.500747
    144 C45         6.8980    1.0780   -2.5340 c3        1 MOL     -0.139613
    145 C46         7.2110    2.4870   -3.0180 c3        1 MOL      0.150337
    146 C47         6.8970    2.7770   -4.4720 c3        1 MOL     -0.131188
    147 C48         7.1920    4.2630   -4.7410 c3        1 MOL     -0.122113
    148 N13         8.5830    4.5600   -5.0180 n4        1 MOL     -0.164520
    149 H67         6.6120   -1.2870   -1.6950 hn        1 MOL      0.185097
    150 H68         8.2600    0.9880   -0.8440 h1        1 MOL      0.145848
    151 H69         5.8330    0.9240   -2.7250 hc        1 MOL      0.043180
    152 H70         7.4480    0.3800   -3.1690 hc        1 MOL      0.043180
    153 H71         8.2760    2.6650   -2.8630 hc        1 MOL      0.000206
    154 H72         6.7510    3.2310   -2.3670 hc        1 MOL      0.000206
    155 H73         5.8140    2.6680   -4.5760 hc        1 MOL      0.079084
    156 H74         7.3380    2.0220   -5.1180 hc        1 MOL      0.079084
    157 H75         6.9300    4.8210   -3.8480 hx        1 MOL      0.134367
    158 H76         6.6100    4.5290   -5.6270 hx        1 MOL      0.134367
    159 H77         8.9320    4.0520   -5.8120 hn        1 MOL      0.251355
    160 H78         8.8020    5.5400   -5.1400 hn        1 MOL      0.251355
    161 H79         9.1850    4.2750   -4.2550 hn        1 MOL      0.251355
    162 N14         5.0970    0.9680    0.0400 n         1 MOL      0.013958
    163 C49         4.1990    1.4990    1.0780 c3        1 MOL     -0.213516
    164 C50         4.7550    1.2740    2.4880 c         1 MOL      0.409579
    165 O22         4.7230    2.1080    3.3890 o         1 MOL     -0.564926
    166 C51         2.7580    1.0070    0.9890 c3        1 MOL      0.192375
    167 C52         1.8760    1.7040   -0.0160 c3        1 MOL     -0.322985
    168 C53         0.6350    0.9440   -0.3130 c         1 MOL      0.929787
    169 O23         0.5940   -0.2880   -0.4080 o         1 MOL     -0.864465
    170 O24        -0.4270    1.5990   -0.5650 o         1 MOL     -0.864465
    171 H80         4.9340    0.2500   -0.6450 hn        1 MOL      0.076512
    172 H81         4.0710    2.5770    0.9530 h1        1 MOL      0.120003
    173 H82         2.3120    0.9130    1.9840 hc        1 MOL      0.016905
    174 H83         2.7360   -0.0500    0.7110 hc        1 MOL      0.016905
    175 H84         2.3450    1.8030   -0.9960 hc        1 MOL      0.048391
    176 H85         1.6170    2.6560    0.4550 hc        1 MOL      0.048391
    177 N15         5.4090    0.1740    2.7340 n         1 MOL      0.083450
    178 C54         6.0090   -0.2560    4.0020 c3        1 MOL     -0.273614
    179 H86         5.3930    0.0940    4.8310 h1        1 MOL      0.096812
    180 H87         6.0670   -1.3440    4.0270 h1        1 MOL      0.096812
    181 H88         7.0110    0.1640    4.0920 h1        1 MOL      0.096812
    182 H89         5.4810   -0.5220    2.0040 hn        1 MOL      0.055422
    183 Ca1        -1.8050   -0.5090   -1.2540 Ca        1 MOL      1.754229
    184 O25        -0.7520   -0.1810   -3.7760 oh        1 MOL     -0.897441
    185 H90        -0.1160   -0.3740   -4.4560 ho        1 MOL      0.399486
    186 H91        -1.4930    0.2100   -4.2470 ho        1 MOL      0.399486
    187 O26        -1.0340   -3.0840   -2.1150 oh        1 MOL     -0.897441
    188 H92        -1.1840   -4.0120   -1.9220 ho        1 MOL      0.399486
    189 H93        -0.4870   -3.0930   -2.8990 ho        1 MOL      0.399486
@<TRIPOS>BOND
     1    1    2 1   
     2    1    4 1   
     3    1    5 1   
     4    1    6 1   
     5    2    3 2   
     6    2    7 1   
     7    7    8 1   
     8    7   15 1   
     9    8    9 1   
    10    8   11 1   
    11    8   16 1   
    12    9   10 2   
    13    9   19 1   
    14   11   12 1   
    15   11   17 1   
    16   11   18 1   
    17   12   13 1   
    18   12   14 1   
    19   19   20 1   
    20   19   28 1   
    21   20   21 1   
    22   20   23 1   
    23   20   29 1   
    24   21   22 2   
    25   21   41 1   
    26   23   24 1   
    27   23   30 1   
    28   23   31 1   
    29   24   25 1   
    30   24   32 1   
    31   24   33 1   
    32   25   26 1   
    33   25   34 1   
    34   25   35 1   
    35   26   27 1   
    36   26   36 1   
    37   26   37 1   
    38   27   38 1   
    39   27   39 1   
    40   27   40 1   
    41   41   42 1   
    42   41   49 1   
    43   42   43 1   
    44   42   45 1   
    45   42   50 1   
    46   43   44 2   
    47   43   53 1   
    48   45   46 1   
    49   45   51 1   
    50   45   52 1   
    51   46   47 1   
    52   46   48 1   
    53   53   54 1   
    54   53   57 1   
    55   54   55 1   
    56   54   58 1   
    57   54   59 1   
    58   55   56 2   
    59   55   60 1   
    60   60   61 1   
    61   60   68 1   
    62   61   62 1   
    63   61   64 1   
    64   61   69 1   
    65   62   63 2   
    66   62   72 1   
    67   64   65 1   
    68   64   70 1   
    69   64   71 1   
    70   65   66 1   
    71   65   67 1   
    72   72   73 1   
    73   72   76 1   
    74   73   74 1   
    75   73   77 1   
    76   73   78 1   
    77   74   75 2   
    78   74   79 1   
    79   79   80 1   
    80   79   86 1   
    81   80   81 1   
    82   80   83 1   
    83   80   87 1   
    84   81   82 2   
    85   81   93 1   
    86   83   84 1   
    87   83   85 1   
    88   83   88 1   
    89   84   90 1   
    90   84   91 1   
    91   84   92 1   
    92   85   89 1   
    93   93   94 1   
    94   93  101 1   
    95   94   95 1   
    96   94   97 1   
    97   94  102 1   
    98   95   96 2   
    99   95  112 1   
   100   97   98 1   
   101   97   99 1   
   102   97  103 1   
   103   98  100 1   
   104   98  104 1   
   105   98  105 1   
   106   99  106 1   
   107   99  107 1   
   108   99  108 1   
   109  100  109 1   
   110  100  110 1   
   111  100  111 1   
   112  112  113 1   
   113  112  119 1   
   114  113  114 1   
   115  113  116 1   
   116  113  120 1   
   117  114  115 2   
   118  114  126 1   
   119  116  117 1   
   120  116  118 1   
   121  116  121 1   
   122  117  123 1   
   123  117  124 1   
   124  117  125 1   
   125  118  122 1   
   126  126  127 1   
   127  126  133 1   
   128  127  128 1   
   129  127  130 1   
   130  127  134 1   
   131  128  129 2   
   132  128  140 1   
   133  130  131 1   
   134  130  132 1   
   135  130  135 1   
   136  131  137 1   
   137  131  138 1   
   138  131  139 1   
   139  132  136 1   
   140  140  141 1   
   141  140  149 1   
   142  141  142 1   
   143  141  144 1   
   144  141  150 1   
   145  142  143 2   
   146  142  162 1   
   147  144  145 1   
   148  144  151 1   
   149  144  152 1   
   150  145  146 1   
   151  145  153 1   
   152  145  154 1   
   153  146  147 1   
   154  146  155 1   
   155  146  156 1   
   156  147  148 1   
   157  147  157 1   
   158  147  158 1   
   159  148  159 1   
   160  148  160 1   
   161  148  161 1   
   162  162  163 1   
   163  162  171 1   
   164  163  164 1   
   165  163  166 1   
   166  163  172 1   
   167  164  165 2   
   168  164  177 1   
   169  166  167 1   
   170  166  173 1   
   171  166  174 1   
   172  167  168 1   
   173  167  175 1   
   174  167  176 1   
   175  168  169 1   
   176  168  170 1   
   177  177  178 1   
   178  177  182 1   
   179  178  179 1   
   180  178  180 1   
   181  178  181 1   
   182  184  185 1   
   183  184  186 1   
   184  187  188 1   
   185  187  189 1   
@<TRIPOS>SUBSTRUCTURE
     1 MOL         1 TEMP              0 ****  ****    0 ROOT
