@<TRIPOS>MOLECULE
MOL
  189   185     1     0     0
SMALL
resp


@<TRIPOS>ATOM
      1 C1         -0.0030    2.7680    6.0700 c3        1 MOL     -0.324391
      2 C2         -0.2570    2.2380    4.6980 c         1 MOL      0.745271
      3 O1          0.5060    2.5210    3.7750 o         1 MOL     -0.700467
      4 H1         -0.9010    3.2610    6.4410 hc        1 MOL      0.082936
      5 H2          0.2600    1.9450    6.7360 hc        1 MOL      0.082936
      6 H3          0.8170    3.4850    6.0380 hc        1 MOL      0.082936
      7 N1         -1.4850    1.8190    4.4320 n         1 MOL     -0.531998
      8 C3         -1.9280    1.6100    3.0350 c3        1 MOL      0.036150
      9 C4         -2.3920    2.9350    2.4410 c         1 MOL      0.571233
     10 O2         -3.4700    3.4160    2.7550 o         1 MOL     -0.536783
     11 C5         -3.1010    0.6370    3.0810 c3        1 MOL     -0.166196
     12 C6         -3.7890    0.3550    1.7180 c         1 MOL      0.754463
     13 O3         -4.9400   -0.1540    1.6710 o         1 MOL     -0.703786
     14 O4         -3.1360    0.7050    0.7140 o         1 MOL     -0.703786
     15 H4         -2.0600    1.5550    5.2130 hn        1 MOL      0.313462
     16 H5         -1.1500    1.2380    2.3570 h1        1 MOL      0.028606
     17 H6         -3.8650    0.9600    3.7870 hc        1 MOL      0.043504
     18 H7         -2.7530   -0.2990    3.5210 hc        1 MOL      0.043504
     19 N2         -1.5470    3.5070    1.5460 n         1 MOL     -0.320586
     20 C7         -1.6580    4.8730    1.0590 c3        1 MOL     -0.009869
     21 C8         -2.9170    5.1010    0.1900 c         1 MOL      0.417819
     22 O5         -3.4570    6.2060    0.2000 o         1 MOL     -0.548588
     23 C9         -0.3500    5.2790    0.3920 c3        1 MOL     -0.150631
     24 C10         0.8690    5.1110    1.2760 c3        1 MOL      0.208775
     25 C11         2.1550    5.5950    0.6380 c3        1 MOL     -0.121118
     26 C12         3.3800    4.9940    1.2290 c3        1 MOL      0.107700
     27 N3          4.6270    5.2560    0.4120 n4        1 MOL     -0.486048
     28 H8         -0.8140    2.9620    1.1270 hn        1 MOL      0.338671
     29 H9         -1.7570    5.4780    1.9680 h1        1 MOL      0.063361
     30 H10        -0.3630    6.3350    0.1240 hc        1 MOL      0.038376
     31 H11        -0.2970    4.5650   -0.4320 hc        1 MOL      0.038376
     32 H12         0.9840    4.0340    1.4180 hc        1 MOL     -0.000294
     33 H13         0.8510    5.5720    2.2570 hc        1 MOL     -0.000294
     34 H14         2.1500    6.6830    0.7030 hc        1 MOL      0.031626
     35 H15         2.1580    5.3090   -0.4170 hc        1 MOL      0.031626
     36 H16         3.3150    3.9040    1.2790 hx        1 MOL      0.095851
     37 H17         3.5870    5.4560    2.1960 hx        1 MOL      0.095851
     38 H18         5.3640    4.6190    0.6790 hn        1 MOL      0.331915
     39 H19         4.4820    5.0190   -0.5610 hn        1 MOL      0.331915
     40 H20         4.9720    6.1790    0.6170 hn        1 MOL      0.331915
     41 N4         -3.3360    4.1700   -0.6850 n         1 MOL     -0.141149
     42 C13        -4.4150    4.3250   -1.6480 c3        1 MOL     -0.054770
     43 C14        -5.6750    3.4670   -1.4740 c         1 MOL      0.497502
     44 O6         -6.5730    3.5990   -2.2940 o         1 MOL     -0.527259
     45 C15        -3.8500    4.2520   -3.0470 c3        1 MOL      0.001680
     46 C16        -2.9690    3.0150   -3.2780 c         1 MOL      0.614295
     47 O7         -2.8030    2.0670   -2.4310 o         1 MOL     -0.639044
     48 O8         -2.4550    2.8840   -4.4230 o         1 MOL     -0.639044
     49 H21        -2.7480    3.3560   -0.7540 hn        1 MOL      0.065089
     50 H22        -4.7740    5.3500   -1.6560 h1        1 MOL      0.086821
     51 H23        -3.2370    5.1000   -3.3530 hc        1 MOL      0.020043
     52 H24        -4.6790    4.2370   -3.7540 hc        1 MOL      0.020043
     53 N5         -5.6550    2.6180   -0.4210 n         1 MOL     -0.310724
     54 C17        -6.9460    2.0600    0.0030 c3        1 MOL     -0.029374
     55 C18        -7.5520    1.0250   -0.8920 c         1 MOL      0.443554
     56 O9         -8.7420    0.7530   -0.7420 o         1 MOL     -0.579451
     57 H25        -4.8040    2.5410    0.1050 hn        1 MOL      0.215270
     58 H26        -7.6880    2.7500    0.4040 h1        1 MOL      0.075565
     59 H27        -6.6250    1.4870    0.8800 h1        1 MOL      0.075565
     60 N6         -6.6970    0.3880   -1.6900 n         1 MOL     -0.180123
     61 C19        -6.9860   -0.8870   -2.3860 c3        1 MOL      0.009434
     62 C20        -6.9920   -2.0670   -1.3750 c         1 MOL      0.431139
     63 O10        -7.1490   -3.2190   -1.8310 o         1 MOL     -0.530889
     64 C21        -6.0730   -1.0720   -3.5880 c3        1 MOL     -0.297488
     65 C22        -4.5700   -1.0160   -3.3940 c         1 MOL      0.796886
     66 O11        -4.0900   -0.7490   -2.2550 o         1 MOL     -0.630640
     67 O12        -3.7840   -1.2800   -4.3840 o         1 MOL     -0.630640
     68 H28        -5.7400    0.7040   -1.6380 hn        1 MOL      0.117427
     69 H29        -8.0130   -0.7720   -2.7530 h1        1 MOL      0.108999
     70 H30        -6.3180   -0.2790   -4.2890 hc        1 MOL      0.087580
     71 H31        -6.2250   -2.0880   -3.9820 hc        1 MOL      0.087580
     72 N7         -6.9310   -1.7660   -0.0800 n         1 MOL     -0.305816
     73 C23        -7.1570   -2.8170    1.0610 c3        1 MOL     -0.076434
     74 C24        -5.9800   -3.7170    1.2460 c         1 MOL      0.501910
     75 O13        -6.2120   -4.8300    1.6790 o         1 MOL     -0.547624
     76 H32        -6.9090   -0.7950    0.2010 hn        1 MOL      0.298064
     77 H33        -7.9900   -3.4480    0.7450 h1        1 MOL      0.098798
     78 H34        -7.4550   -2.3360    1.9940 h1        1 MOL      0.098798
     79 N8         -4.7700   -3.2650    0.7970 n         1 MOL     -0.123552
     80 C25        -3.5480   -4.0010    0.6710 c3        1 MOL     -0.276107
     81 C26        -2.2950   -3.2520    0.8540 c         1 MOL      0.853294
     82 O14        -2.2540   -2.0930    0.5000 o         1 MOL     -0.608831
     83 C27        -3.4760   -4.8160   -0.6670 c3        1 MOL      0.497690
     84 C28        -4.2300   -6.1720   -0.8080 c3        1 MOL     -0.472776
     85 O15        -3.8030   -4.1420   -1.8070 oh        1 MOL     -0.625866
     86 H35        -4.7760   -2.2710    0.6050 hn        1 MOL      0.088267
     87 H36        -3.6270   -4.8430    1.3480 h1        1 MOL      0.066080
     88 H37        -2.4230   -5.0710   -0.8080 h1        1 MOL     -0.027054
     89 H38        -4.7620   -4.1430   -1.8210 ho        1 MOL      0.399562
     90 H39        -3.5600   -6.8810   -0.3100 hc        1 MOL      0.116721
     91 H40        -5.1910   -6.2070   -0.2950 hc        1 MOL      0.116721
     92 H41        -4.3600   -6.4140   -1.8580 hc        1 MOL      0.116721
     93 N9         -1.2600   -3.8890    1.4430 n         1 MOL     -0.767280
     94 C29         0.0690   -3.2720    1.6680 c3        1 MOL      0.070824
     95 C30         1.2060   -3.9290    0.8290 c         1 MOL      0.472418
     96 O16         1.4810   -5.0860    1.0030 o         1 MOL     -0.541800
     97 C31         0.4370   -3.3020    3.1960 c3        1 MOL     -0.009912
     98 C32        -0.4320   -2.1920    3.8500 c3        1 MOL      0.185305
     99 C33         1.8920   -3.0960    3.5910 c3        1 MOL     -0.238773
    100 C34        -0.1900   -1.9060    5.3600 c3        1 MOL     -0.248787
    101 H42        -1.3830   -4.8550    1.7010 hn        1 MOL      0.370242
    102 H43         0.0260   -2.2530    1.2950 h1        1 MOL      0.067096
    103 H44         0.0650   -4.2000    3.6860 hc        1 MOL      0.051073
    104 H45        -1.4960   -2.3420    3.6830 hc        1 MOL     -0.006391
    105 H46        -0.1650   -1.2860    3.3120 hc        1 MOL     -0.006391
    106 H47         1.9830   -3.2540    4.6670 hc        1 MOL      0.054401
    107 H48         2.5600   -3.7970    3.0850 hc        1 MOL      0.054401
    108 H49         2.2390   -2.1110    3.2920 hc        1 MOL      0.054401
    109 H50        -0.1850   -2.8250    5.9470 hc        1 MOL      0.053316
    110 H51         0.7860   -1.4240    5.4800 hc        1 MOL      0.053316
    111 H52        -0.9810   -1.2540    5.7290 hc        1 MOL      0.053316
    112 N10         1.8900   -3.1020    0.0920 n         1 MOL     -0.060930
    113 C35         3.0720   -3.4760   -0.7670 c3        1 MOL     -0.066279
    114 C36         4.3920   -2.8550   -0.1470 c         1 MOL      0.177920
    115 O17         4.3280   -2.1770    0.8730 o         1 MOL     -0.178918
    116 C37         2.8790   -3.0840   -2.2320 c3        1 MOL      0.195811
    117 C38         1.8230   -3.8690   -2.9060 c3        1 MOL     -0.269438
    118 O18         2.4790   -1.7120   -2.3460 oh        1 MOL     -0.598772
    119 H53         1.5590   -2.1470    0.0380 hn        1 MOL      0.091971
    120 H54         3.1910   -4.5660   -0.7430 h1        1 MOL      0.102655
    121 H55         3.7520   -3.2120   -2.8770 h1        1 MOL      0.092781
    122 H56         1.7540   -1.5930   -1.7300 ho        1 MOL      0.407031
    123 H57         0.8840   -3.6010   -2.4100 hc        1 MOL      0.077633
    124 H58         1.7990   -3.7100   -3.9850 hc        1 MOL      0.077633
    125 H59         1.8920   -4.9410   -2.7300 hc        1 MOL      0.077633
    126 N11         5.5720   -3.0340   -0.7380 n         1 MOL     -0.156715
    127 C39         6.8920   -2.7250   -0.2000 c3        1 MOL     -0.068706
    128 C40         7.1170   -1.1830    0.0760 c         1 MOL      0.389020
    129 O19         7.5490   -0.9280    1.2300 o         1 MOL     -0.482402
    130 C41         8.0120   -3.1260   -1.1790 c3        1 MOL      0.144318
    131 C42         8.2720   -4.6050   -1.1420 c3        1 MOL     -0.256740
    132 O20         7.6160   -2.9470   -2.4240 oh        1 MOL     -0.564078
    133 H60         5.5700   -3.3530   -1.6960 hn        1 MOL      0.197049
    134 H61         7.1840   -3.3430    0.6490 h1        1 MOL      0.139536
    135 H62         8.9240   -2.6170   -0.8610 h1        1 MOL      0.072028
    136 H63         8.4260   -2.8880   -2.9240 ho        1 MOL      0.406761
    137 H64         8.4500   -5.0210   -0.1450 hc        1 MOL      0.078625
    138 H65         7.3920   -5.1900   -1.3940 hc        1 MOL      0.078625
    139 H66         9.1350   -4.8380   -1.7570 hc        1 MOL      0.078625
    140 N12         6.6810   -0.2850   -0.7800 n         1 MOL     -0.530570
    141 C43         6.8430    1.1650   -0.5960 c3        1 MOL     -0.028606
    142 C44         5.8940    1.6100    0.5080 c         1 MOL      0.389983
    143 O21         6.0370    2.7620    0.9600 o         1 MOL     -0.578033
    144 C45         6.8080    1.8990   -1.9880 c3        1 MOL     -0.086285
    145 C46         7.9470    1.6120   -2.9780 c3        1 MOL      0.127964
    146 C47         7.8950    2.3990   -4.2040 c3        1 MOL     -0.151629
    147 C48         8.9690    2.0180   -5.1530 c3        1 MOL     -0.118006
    148 N13        10.3590    2.3280   -4.7080 n4        1 MOL     -0.233603
    149 H67         6.3500   -0.6220   -1.6700 hn        1 MOL      0.345418
    150 H68         7.8710    1.3480   -0.2780 h1        1 MOL      0.158072
    151 H69         6.9220    2.9770   -1.8480 hc        1 MOL      0.038946
    152 H70         5.8560    1.7500   -2.4960 hc        1 MOL      0.038946
    153 H71         7.7760    0.5760   -3.2520 hc        1 MOL     -0.014972
    154 H72         8.8780    1.8270   -2.4470 hc        1 MOL     -0.014972
    155 H73         8.1530    3.4050   -3.8520 hc        1 MOL      0.085276
    156 H74         6.9100    2.2350   -4.6490 hc        1 MOL      0.085276
    157 H75         8.7120    2.5490   -6.0760 hx        1 MOL      0.134958
    158 H76         8.8430    0.9460   -5.3280 hx        1 MOL      0.134958
    159 H77        10.4320    3.2960   -4.4260 hn        1 MOL      0.223157
    160 H78        10.5350    1.7760   -3.8860 hn        1 MOL      0.223157
    161 H79        10.9090    2.0750   -5.5130 hn        1 MOL      0.223157
    162 N14         4.9980    0.7660    1.0070 n         1 MOL     -0.117263
    163 C49         4.0440    1.0260    2.0720 c3        1 MOL      0.182786
    164 C50         4.5120    0.3860    3.3910 c         1 MOL      0.346565
    165 O22         4.4690    1.1050    4.4120 o         1 MOL     -0.533231
    166 C51         2.6780    0.5300    1.6410 c3        1 MOL      0.162824
    167 C52         2.2470    1.0500    0.2680 c3        1 MOL     -0.066430
    168 C53         0.7920    0.7670   -0.1270 c         1 MOL      0.617420
    169 O23         0.4090   -0.3610   -0.5360 o         1 MOL     -0.676089
    170 O24        -0.0350    1.7070   -0.0920 o         1 MOL     -0.676089
    171 H80         4.8760   -0.0940    0.4860 hn        1 MOL      0.182912
    172 H81         3.9950    2.0900    2.2950 h1        1 MOL     -0.039646
    173 H82         1.9930    0.8890    2.4090 hc        1 MOL     -0.015934
    174 H83         2.6620   -0.5550    1.7300 hc        1 MOL     -0.015934
    175 H84         2.8480    0.5450   -0.4870 hc        1 MOL     -0.037233
    176 H85         2.5220    2.1050    0.2280 hc        1 MOL     -0.037233
    177 N15         4.8910   -0.8570    3.3750 n         1 MOL     -0.034209
    178 C54         5.5000   -1.6860    4.4250 c3        1 MOL     -0.226962
    179 H86         6.5560   -1.8370    4.2010 h1        1 MOL      0.101687
    180 H87         5.4010   -1.1840    5.3870 h1        1 MOL      0.101687
    181 H88         4.9960   -2.6520    4.4650 h1        1 MOL      0.101687
    182 H89         4.8370   -1.3360    2.4910 hn        1 MOL      0.016248
    183 Ca1        -1.9070    0.0340   -1.3300 Ca        1 MOL      1.670484
    184 O25        -1.1900   -2.1720   -2.4810 oh        1 MOL     -0.829010
    185 H90        -1.6780   -2.9990   -2.4350 ho        1 MOL      0.399385
    186 H91        -0.6990   -2.2300   -3.3060 ho        1 MOL      0.399385
    187 O26        -0.4370    0.4900   -3.5800 oh        1 MOL     -0.829010
    188 H92        -0.5030    1.3250   -4.0530 ho        1 MOL      0.399385
    189 H93         0.4250    0.1490   -3.8250 ho        1 MOL      0.399385
@<TRIPOS>BOND
     1    1    2 1   
     2    1    4 1   
     3    1    5 1   
     4    1    6 1   
     5    2    3 2   
     6    2    7 1   
     7    7    8 1   
     8    7   15 1   
     9    8    9 1   
    10    8   11 1   
    11    8   16 1   
    12    9   10 2   
    13    9   19 1   
    14   11   12 1   
    15   11   17 1   
    16   11   18 1   
    17   12   13 1   
    18   12   14 1   
    19   19   20 1   
    20   19   28 1   
    21   20   21 1   
    22   20   23 1   
    23   20   29 1   
    24   21   22 2   
    25   21   41 1   
    26   23   24 1   
    27   23   30 1   
    28   23   31 1   
    29   24   25 1   
    30   24   32 1   
    31   24   33 1   
    32   25   26 1   
    33   25   34 1   
    34   25   35 1   
    35   26   27 1   
    36   26   36 1   
    37   26   37 1   
    38   27   38 1   
    39   27   39 1   
    40   27   40 1   
    41   41   42 1   
    42   41   49 1   
    43   42   43 1   
    44   42   45 1   
    45   42   50 1   
    46   43   44 2   
    47   43   53 1   
    48   45   46 1   
    49   45   51 1   
    50   45   52 1   
    51   46   47 1   
    52   46   48 1   
    53   53   54 1   
    54   53   57 1   
    55   54   55 1   
    56   54   58 1   
    57   54   59 1   
    58   55   56 2   
    59   55   60 1   
    60   60   61 1   
    61   60   68 1   
    62   61   62 1   
    63   61   64 1   
    64   61   69 1   
    65   62   63 2   
    66   62   72 1   
    67   64   65 1   
    68   64   70 1   
    69   64   71 1   
    70   65   66 1   
    71   65   67 1   
    72   72   73 1   
    73   72   76 1   
    74   73   74 1   
    75   73   77 1   
    76   73   78 1   
    77   74   75 2   
    78   74   79 1   
    79   79   80 1   
    80   79   86 1   
    81   80   81 1   
    82   80   83 1   
    83   80   87 1   
    84   81   82 2   
    85   81   93 1   
    86   83   84 1   
    87   83   85 1   
    88   83   88 1   
    89   84   90 1   
    90   84   91 1   
    91   84   92 1   
    92   85   89 1   
    93   93   94 1   
    94   93  101 1   
    95   94   95 1   
    96   94   97 1   
    97   94  102 1   
    98   95   96 2   
    99   95  112 1   
   100   97   98 1   
   101   97   99 1   
   102   97  103 1   
   103   98  100 1   
   104   98  104 1   
   105   98  105 1   
   106   99  106 1   
   107   99  107 1   
   108   99  108 1   
   109  100  109 1   
   110  100  110 1   
   111  100  111 1   
   112  112  113 1   
   113  112  119 1   
   114  113  114 1   
   115  113  116 1   
   116  113  120 1   
   117  114  115 2   
   118  114  126 1   
   119  116  117 1   
   120  116  118 1   
   121  116  121 1   
   122  117  123 1   
   123  117  124 1   
   124  117  125 1   
   125  118  122 1   
   126  126  127 1   
   127  126  133 1   
   128  127  128 1   
   129  127  130 1   
   130  127  134 1   
   131  128  129 2   
   132  128  140 1   
   133  130  131 1   
   134  130  132 1   
   135  130  135 1   
   136  131  137 1   
   137  131  138 1   
   138  131  139 1   
   139  132  136 1   
   140  140  141 1   
   141  140  149 1   
   142  141  142 1   
   143  141  144 1   
   144  141  150 1   
   145  142  143 2   
   146  142  162 1   
   147  144  145 1   
   148  144  151 1   
   149  144  152 1   
   150  145  146 1   
   151  145  153 1   
   152  145  154 1   
   153  146  147 1   
   154  146  155 1   
   155  146  156 1   
   156  147  148 1   
   157  147  157 1   
   158  147  158 1   
   159  148  159 1   
   160  148  160 1   
   161  148  161 1   
   162  162  163 1   
   163  162  171 1   
   164  163  164 1   
   165  163  166 1   
   166  163  172 1   
   167  164  165 2   
   168  164  177 1   
   169  166  167 1   
   170  166  173 1   
   171  166  174 1   
   172  167  168 1   
   173  167  175 1   
   174  167  176 1   
   175  168  169 1   
   176  168  170 1   
   177  177  178 1   
   178  177  182 1   
   179  178  179 1   
   180  178  180 1   
   181  178  181 1   
   182  184  185 1   
   183  184  186 1   
   184  187  188 1   
   185  187  189 1   
@<TRIPOS>SUBSTRUCTURE
     1 MOL         1 TEMP              0 ****  ****    0 ROOT
