@<TRIPOS>MOLECULE
MOL
  169   169     1     0     0
SMALL
resp


@<TRIPOS>ATOM
      1 C1          0.0350    2.7420    6.3580 c3        1 MOL     -0.368728
      2 C2         -0.4810    2.9820    4.9080 c         1 MOL      0.757186
      3 O1          0.1730    3.7450    4.1920 o         1 MOL     -0.577419
      4 H1          0.9220    3.3510    6.5320 hc        1 MOL      0.087952
      5 H2         -0.7400    3.0200    7.0710 hc        1 MOL      0.087952
      6 H3          0.2870    1.6890    6.4850 hc        1 MOL      0.087952
      7 N1         -1.5190    2.2880    4.4560 n         1 MOL     -0.677446
      8 C3         -1.8090    2.2230    3.0060 c3        1 MOL      0.268964
      9 C4         -2.0490    3.6150    2.3210 c         1 MOL      0.489654
     10 O2         -2.9320    4.3530    2.7620 o         1 MOL     -0.599816
     11 C5         -2.9120    1.1230    2.8490 c3        1 MOL     -0.381511
     12 C6         -3.2270    0.8020    1.3770 c         1 MOL      0.877023
     13 O3         -3.4820   -0.3800    1.1020 o         1 MOL     -0.743369
     14 O4         -3.1400    1.6470    0.4160 o         1 MOL     -0.743369
     15 H4         -2.0120    1.5680    4.9710 hn        1 MOL      0.337194
     16 H5         -0.9150    1.7760    2.5700 h1        1 MOL     -0.012232
     17 H6         -3.8760    1.3830    3.2750 hc        1 MOL      0.093864
     18 H7         -2.5580    0.2200    3.3460 hc        1 MOL      0.093864
     19 N2         -1.3800    3.9820    1.2630 n         1 MOL     -0.175053
     20 C7         -1.5010    5.2490    0.4890 c3        1 MOL      0.056020
     21 C8         -2.5180    5.3150   -0.7010 c         1 MOL      0.502564
     22 O5         -2.8730    6.4060   -1.0810 o         1 MOL     -0.582497
     23 C9         -0.0610    5.6400    0.0570 c3        1 MOL     -0.321457
     24 H8         -0.8020    3.2950    0.8070 hn        1 MOL      0.182349
     25 H9         -1.8280    6.0330    1.1790 h1        1 MOL      0.067359
     26 H10         0.5850    5.5440    0.9260 hc        1 MOL      0.085348
     27 H11         0.4110    5.1110   -0.7670 hc        1 MOL      0.085348
     28 H12        -0.1410    6.6320   -0.3850 hc        1 MOL      0.085348
     29 N3         -2.9940    4.2040   -1.1350 n         1 MOL     -0.261610
     30 C10        -3.9220    4.0890   -2.3040 c3        1 MOL      0.190668
     31 C11        -5.3370    3.7150   -1.9150 c         1 MOL      0.290425
     32 O6         -6.3510    4.0450   -2.5570 o         1 MOL     -0.534346
     33 C12        -3.2890    3.3230   -3.4660 c3        1 MOL     -0.151328
     34 C13        -2.9920    1.8340   -3.1280 c         1 MOL      0.824619
     35 O7         -1.8950    1.2550   -3.4180 o         1 MOL     -0.772846
     36 O8         -3.8220    1.1810   -2.4580 o         1 MOL     -0.772846
     37 H13        -2.7420    3.3610   -0.6370 hn        1 MOL      0.115621
     38 H14        -4.0260    5.1060   -2.6950 h1        1 MOL      0.051146
     39 H15        -2.4170    3.9000   -3.7740 hc        1 MOL      0.025702
     40 H16        -3.9220    3.2420   -4.3550 hc        1 MOL      0.025702
     41 N4         -5.4420    3.0400   -0.7780 n         1 MOL     -0.065740
     42 C14        -6.6160    2.5490   -0.1260 c3        1 MOL     -0.316453
     43 C15        -7.1880    1.2510   -0.6540 c         1 MOL      0.535142
     44 O9         -8.3730    0.8810   -0.4040 o         1 MOL     -0.591241
     45 H17        -4.5850    2.8240   -0.2940 hn        1 MOL      0.152256
     46 H18        -7.3560    3.3450   -0.2630 h1        1 MOL      0.129511
     47 H19        -6.3750    2.5170    0.9320 h1        1 MOL      0.129511
     48 N5         -6.4190    0.4560   -1.4460 n         1 MOL     -0.181698
     49 C16        -6.8160   -0.9540   -1.8650 c3        1 MOL     -0.293013
     50 C17        -6.7900   -1.9650   -0.6820 c         1 MOL      0.587919
     51 O10        -7.3900   -3.0790   -0.8160 o         1 MOL     -0.562966
     52 C18        -5.9460   -1.3120   -3.1300 c3        1 MOL     -0.051073
     53 C19        -4.6770   -1.9910   -2.7800 c         1 MOL      0.739054
     54 N6         -4.1830   -2.8770   -3.5630 n         1 MOL     -0.804272
     55 O11        -4.0630   -1.6750   -1.7780 o         1 MOL     -0.758254
     56 H20        -5.4570    0.7370   -1.5700 hn        1 MOL      0.231605
     57 H21        -7.8090   -0.8260   -2.3110 h1        1 MOL      0.157017
     58 H22        -5.8790   -0.5150   -3.8700 hc        1 MOL      0.047453
     59 H23        -6.3630   -2.1390   -3.7060 hc        1 MOL      0.047453
     60 H24        -4.6670   -3.1680   -4.3900 hn        1 MOL      0.381020
     61 H25        -3.5100   -3.4790   -3.1160 hn        1 MOL      0.381020
     62 N7         -6.1240   -1.6700    0.4550 n         1 MOL     -0.252523
     63 C20        -6.2120   -2.4850    1.6880 c3        1 MOL     -0.150812
     64 C21        -5.2120   -3.6430    1.7490 c         1 MOL      0.550321
     65 O12        -5.3050   -4.5500    2.6270 o         1 MOL     -0.587544
     66 H26        -5.5030   -0.8800    0.4910 hn        1 MOL      0.231373
     67 H27        -7.2030   -2.9110    1.8210 h1        1 MOL      0.093381
     68 H28        -6.0480   -1.8850    2.5740 h1        1 MOL      0.093381
     69 N8         -4.1490   -3.5350    0.9260 n         1 MOL     -0.323120
     70 C22        -2.9860   -4.4110    1.0700 c3        1 MOL     -0.153594
     71 C23        -1.7700   -3.5410    0.8670 c         1 MOL      0.673998
     72 O13        -1.7740   -2.6490    0.0230 o         1 MOL     -0.646190
     73 C24        -2.9320   -5.5630    0.1220 c3        1 MOL      0.345759
     74 C25        -3.9380   -6.6580    0.5810 c3        1 MOL     -0.412229
     75 O14        -3.2880   -5.1940   -1.1970 oh        1 MOL     -0.590849
     76 H29        -4.1270   -2.8400    0.1850 hn        1 MOL      0.341037
     77 H30        -2.9170   -4.8250    2.0780 h1        1 MOL      0.104224
     78 H31        -1.9060   -5.9270    0.0880 h1        1 MOL     -0.006063
     79 H32        -2.5370   -4.7550   -1.6160 ho        1 MOL      0.389027
     80 H33        -3.9010   -7.5580   -0.0470 hc        1 MOL      0.112953
     81 H34        -3.8260   -7.0780    1.5810 hc        1 MOL      0.112953
     82 H35        -4.9510   -6.2890    0.4240 hc        1 MOL      0.112953
     83 N9         -0.6760   -3.8550    1.6240 n         1 MOL     -0.507957
     84 C26         0.5810   -3.1500    1.5830 c3        1 MOL     -0.014573
     85 C27         1.3060   -3.3340    0.2070 c         1 MOL      0.671036
     86 O15         1.7400   -4.4580   -0.0570 o         1 MOL     -0.593307
     87 C28         1.3590   -3.5340    2.9110 c3        1 MOL      0.024887
     88 C29         0.8800   -2.7520    4.1210 c3        1 MOL      0.296574
     89 C30         2.8720   -3.3260    2.5980 c3        1 MOL     -0.098633
     90 C31         1.3800   -3.3040    5.4400 c3        1 MOL     -0.330108
     91 H36        -0.7960   -4.5840    2.3090 hn        1 MOL      0.249821
     92 H37         0.3050   -2.1040    1.6700 h1        1 MOL      0.051344
     93 H38         1.2890   -4.5890    3.1620 hc        1 MOL      0.025352
     94 H39        -0.2160   -2.7560    4.1520 hc        1 MOL     -0.052906
     95 H40         1.1890   -1.7180    3.9970 hc        1 MOL     -0.052906
     96 H41         3.1360   -2.3030    2.3280 hc        1 MOL      0.006415
     97 H42         3.4310   -3.5110    3.5200 hc        1 MOL      0.006415
     98 H43         3.1690   -4.0410    1.8350 hc        1 MOL      0.006415
     99 H44         1.2910   -4.3930    5.4790 hc        1 MOL      0.064222
    100 H45         2.3690   -2.8820    5.6170 hc        1 MOL      0.064222
    101 H46         0.7730   -2.8230    6.2060 hc        1 MOL      0.064222
    102 N10         1.4950   -2.2060   -0.5490 n         1 MOL     -0.477430
    103 C32         2.4910   -2.0740   -1.6030 c3        1 MOL      0.188406
    104 C33         3.8190   -1.6390   -1.0250 c         1 MOL      0.351605
    105 O16         3.9250   -1.0570    0.0880 o         1 MOL     -0.325300
    106 C34         1.9470   -1.1310   -2.7000 c3        1 MOL     -0.115377
    107 C35         0.6310   -1.6120   -3.3560 c         1 MOL      0.671720
    108 O17         0.6890   -2.2060   -4.4610 o         1 MOL     -0.676688
    109 O18        -0.4210   -1.3940   -2.6820 o         1 MOL     -0.676688
    110 H47         1.0220   -1.4040   -0.1600 hn        1 MOL      0.235627
    111 H48         2.6510   -3.0300   -2.1130 h1        1 MOL      0.037832
    112 H49         2.6620   -1.0900   -3.5280 hc        1 MOL      0.019827
    113 H50         1.8240   -0.1450   -2.2520 hc        1 MOL      0.019827
    114 N11         4.8760   -1.7020   -1.8260 n         1 MOL     -0.586756
    115 C36         6.2790   -1.3210   -1.3900 c3        1 MOL      0.255080
    116 C37         6.5350    0.1170   -0.8430 c         1 MOL      0.490995
    117 O19         7.0150    0.2720    0.2000 o         1 MOL     -0.524206
    118 C38         7.1970   -1.6300   -2.6260 c3        1 MOL     -0.161188
    119 C39         8.6420   -1.3870   -2.2930 ca        1 MOL      0.122573
    120 C40         9.1750   -1.8810   -1.0980 ca        1 MOL     -0.215101
    121 C41         9.4240   -0.5270   -3.0690 ca        1 MOL     -0.215101
    122 C42        10.5050   -1.5740   -0.7060 ca        1 MOL     -0.041173
    123 C43        10.7790   -0.2100   -2.7660 ca        1 MOL     -0.041173
    124 C44        11.3580   -0.8390   -1.5850 ca        1 MOL     -0.215985
    125 H51         4.7500   -2.1640   -2.7130 hn        1 MOL      0.325158
    126 H52         6.6260   -1.9610   -0.5780 h1        1 MOL      0.069603
    127 H53         6.9730   -1.0300   -3.5130 hc        1 MOL      0.051887
    128 H54         7.0200   -2.6680   -2.8960 hc        1 MOL      0.051887
    129 H55         8.5880   -2.5080   -0.4370 ha        1 MOL      0.118911
    130 H56         8.9820   -0.0990   -3.9570 ha        1 MOL      0.118911
    131 H57        10.9120   -1.9140    0.2340 ha        1 MOL      0.102414
    132 H58        11.4320    0.4010   -3.3830 ha        1 MOL      0.102414
    133 H59        12.3370   -0.4680   -1.3090 ha        1 MOL      0.127658
    134 N12         5.9500    1.1810   -1.4140 n         1 MOL     -0.127847
    135 C45         5.9820    2.4310   -0.7570 c3        1 MOL     -0.121940
    136 C46         5.2290    2.6800    0.4720 c         1 MOL      0.430364
    137 O20         5.4260    3.7270    1.0360 o         1 MOL     -0.535257
    138 C47         5.5210    3.3770   -1.8050 c3        1 MOL     -0.022777
    139 C48         5.6430    2.6760   -3.1060 c3        1 MOL      0.042873
    140 C49         5.3690    1.2150   -2.7690 c3        1 MOL     -0.094977
    141 H60         7.0330    2.5540   -0.5300 h1        1 MOL      0.100257
    142 H61         4.5200    3.7990   -1.7290 hc        1 MOL      0.045469
    143 H62         6.0650    4.3280   -1.8350 hc        1 MOL      0.045469
    144 H63         4.9270    3.0050   -3.8630 hc        1 MOL     -0.001203
    145 H64         6.6080    2.9040   -3.5480 hc        1 MOL     -0.001203
    146 H65         4.3120    0.9610   -2.7200 h1        1 MOL      0.061769
    147 H66         5.8720    0.5110   -3.4270 h1        1 MOL      0.061769
    148 N13         4.3550    1.7270    0.8650 n         1 MOL     -0.264484
    149 C50         3.6310    1.7570    2.2020 c3        1 MOL      0.048035
    150 C51         4.3820    0.8670    3.2440 c         1 MOL      0.402007
    151 O21         4.3910    1.2160    4.4370 o         1 MOL     -0.545174
    152 C52         2.2600    1.2750    1.9150 c3        1 MOL      0.021094
    153 C53         1.5930    1.9710    0.6440 c3        1 MOL     -0.138563
    154 C54         0.3420    1.3490    0.1640 c         1 MOL      0.679108
    155 O22         0.0760    0.1670    0.5390 o         1 MOL     -0.718268
    156 O23        -0.3480    1.8790   -0.7590 o         1 MOL     -0.718268
    157 H67         4.2250    0.9380    0.2580 hn        1 MOL      0.236899
    158 H68         3.5650    2.7260    2.6920 h1        1 MOL      0.077902
    159 H69         1.6250    1.5300    2.7640 hc        1 MOL      0.010235
    160 H70         2.3540    0.2000    1.7810 hc        1 MOL      0.010235
    161 H71         2.2310    1.9170   -0.2390 hc        1 MOL      0.054257
    162 H72         1.3760    2.9930    0.9460 hc        1 MOL      0.054257
    163 N14         5.0250   -0.2560    2.8380 n         1 MOL     -0.002008
    164 C55         6.0630   -0.9080    3.5990 c3        1 MOL     -0.244650
    165 H73         6.7830   -0.1660    3.9400 h1        1 MOL      0.085202
    166 H74         5.6220   -1.4100    4.4600 h1        1 MOL      0.085202
    167 H75         6.5680   -1.6420    2.9710 h1        1 MOL      0.085202
    168 H76         4.9420   -0.5170    1.8650 hn        1 MOL      0.047667
    169 Ca1        -1.9680   -0.1990   -1.1400 Ca        1 MOL      1.754006
@<TRIPOS>BOND
     1    1    2 1   
     2    1    4 1   
     3    1    5 1   
     4    1    6 1   
     5    2    3 2   
     6    2    7 1   
     7    7    8 1   
     8    7   15 1   
     9    8    9 1   
    10    8   11 1   
    11    8   16 1   
    12    9   10 2   
    13    9   19 1   
    14   11   12 1   
    15   11   17 1   
    16   11   18 1   
    17   12   13 1   
    18   12   14 1   
    19   19   20 1   
    20   19   24 1   
    21   20   21 1   
    22   20   23 1   
    23   20   25 1   
    24   21   22 2   
    25   21   29 1   
    26   23   26 1   
    27   23   27 1   
    28   23   28 1   
    29   29   30 1   
    30   29   37 1   
    31   30   31 1   
    32   30   33 1   
    33   30   38 1   
    34   31   32 2   
    35   31   41 1   
    36   33   34 1   
    37   33   39 1   
    38   33   40 1   
    39   34   35 1   
    40   34   36 1   
    41   41   42 1   
    42   41   45 1   
    43   42   43 1   
    44   42   46 1   
    45   42   47 1   
    46   43   44 2   
    47   43   48 1   
    48   48   49 1   
    49   48   56 1   
    50   49   50 1   
    51   49   52 1   
    52   49   57 1   
    53   50   51 2   
    54   50   62 1   
    55   52   53 1   
    56   52   58 1   
    57   52   59 1   
    58   53   54 1   
    59   53   55 2   
    60   54   60 1   
    61   54   61 1   
    62   62   63 1   
    63   62   66 1   
    64   63   64 1   
    65   63   67 1   
    66   63   68 1   
    67   64   65 2   
    68   64   69 1   
    69   69   70 1   
    70   69   76 1   
    71   70   71 1   
    72   70   73 1   
    73   70   77 1   
    74   71   72 2   
    75   71   83 1   
    76   73   74 1   
    77   73   75 1   
    78   73   78 1   
    79   74   80 1   
    80   74   81 1   
    81   74   82 1   
    82   75   79 1   
    83   83   84 1   
    84   83   91 1   
    85   84   85 1   
    86   84   87 1   
    87   84   92 1   
    88   85   86 2   
    89   85  102 1   
    90   87   88 1   
    91   87   89 1   
    92   87   93 1   
    93   88   90 1   
    94   88   94 1   
    95   88   95 1   
    96   89   96 1   
    97   89   97 1   
    98   89   98 1   
    99   90   99 1   
   100   90  100 1   
   101   90  101 1   
   102  102  103 1   
   103  102  110 1   
   104  103  104 1   
   105  103  106 1   
   106  103  111 1   
   107  104  105 2   
   108  104  114 1   
   109  106  107 1   
   110  106  112 1   
   111  106  113 1   
   112  107  108 1   
   113  107  109 1   
   114  114  115 1   
   115  114  125 1   
   116  115  116 1   
   117  115  118 1   
   118  115  126 1   
   119  116  117 2   
   120  116  134 1   
   121  118  119 1   
   122  118  127 1   
   123  118  128 1   
   124  119  120 ar  
   125  119  121 ar  
   126  120  122 ar  
   127  120  129 1   
   128  121  123 ar  
   129  121  130 1   
   130  122  124 ar  
   131  122  131 1   
   132  123  124 ar  
   133  123  132 1   
   134  124  133 1   
   135  134  135 1   
   136  134  140 1   
   137  135  136 1   
   138  135  138 1   
   139  135  141 1   
   140  136  137 2   
   141  136  148 1   
   142  138  139 1   
   143  138  142 1   
   144  138  143 1   
   145  139  140 1   
   146  139  144 1   
   147  139  145 1   
   148  140  146 1   
   149  140  147 1   
   150  148  149 1   
   151  148  157 1   
   152  149  150 1   
   153  149  152 1   
   154  149  158 1   
   155  150  151 2   
   156  150  163 1   
   157  152  153 1   
   158  152  159 1   
   159  152  160 1   
   160  153  154 1   
   161  153  161 1   
   162  153  162 1   
   163  154  155 1   
   164  154  156 1   
   165  163  164 1   
   166  163  168 1   
   167  164  165 1   
   168  164  166 1   
   169  164  167 1   
@<TRIPOS>SUBSTRUCTURE
     1 MOL         1 TEMP              0 ****  ****    0 ROOT
