@<TRIPOS>MOLECULE
MOL
  189   185     1     0     0
SMALL
resp


@<TRIPOS>ATOM
      1 C1          0.5270   -4.1710    5.5170 c3        1 MOL     -0.246648
      2 C2          0.8880   -4.4750    4.0140 c         1 MOL      0.678334
      3 O1         -0.0190   -4.7530    3.2060 o         1 MOL     -0.560481
      4 H1         -0.4930   -3.7900    5.5760 hc        1 MOL      0.050944
      5 H2          0.6070   -5.0860    6.1020 hc        1 MOL      0.050944
      6 H3          1.2160   -3.4240    5.9140 hc        1 MOL      0.050944
      7 N1          2.1470   -4.3800    3.6180 n         1 MOL     -0.649964
      8 C3          2.4990   -4.1150    2.2580 c3        1 MOL      0.406275
      9 C4          2.2290   -5.2210    1.2110 c         1 MOL      0.349074
     10 O2          2.5840   -6.3900    1.3560 o         1 MOL     -0.565138
     11 C5          4.0090   -3.7530    2.1480 c3        1 MOL     -0.342753
     12 C6          4.4760   -3.4060    0.7710 c         1 MOL      0.735891
     13 O3          4.0930   -2.3320    0.2560 o         1 MOL     -0.630855
     14 O4          5.3230   -4.1930    0.2440 o         1 MOL     -0.630855
     15 H4          2.8490   -4.2580    4.3290 hn        1 MOL      0.314978
     16 H5          2.0500   -3.1630    1.9670 h1        1 MOL      0.073091
     17 H6          4.5450   -4.6160    2.5480 hc        1 MOL      0.036084
     18 H7          4.2130   -2.9270    2.8180 hc        1 MOL      0.036084
     19 N2          1.6470   -4.7500    0.1390 n         1 MOL      0.093775
     20 C7          1.4230   -5.5210   -1.1250 c3        1 MOL     -0.011231
     21 C8          2.5640   -5.2530   -2.1090 c         1 MOL      0.434904
     22 O5          3.2040   -6.1210   -2.6960 o         1 MOL     -0.604373
     23 C9          0.0800   -5.0470   -1.7200 c3        1 MOL      0.315363
     24 C10        -1.0760   -5.1080   -0.6420 c3        1 MOL      0.069894
     25 C11        -0.1530   -5.7300   -3.0110 c3        1 MOL     -0.343946
     26 C12        -1.6880   -6.3320   -0.0530 c3        1 MOL     -0.350467
     27 H8          1.4050   -3.7680    0.1160 hn        1 MOL     -0.264176
     28 H9          1.2890   -6.5820   -0.9290 h1        1 MOL      0.028859
     29 H10         0.1560   -4.0080   -2.0450 hc        1 MOL     -0.042953
     30 H11        -1.8760   -4.4240   -0.9300 hc        1 MOL      0.003183
     31 H12        -0.6690   -4.5930    0.2380 hc        1 MOL      0.003183
     32 H13         0.5060   -5.2860   -3.7500 hc        1 MOL      0.054776
     33 H14         0.1260   -6.7700   -2.8650 hc        1 MOL      0.054776
     34 H15        -1.2330   -5.6710   -3.1850 hc        1 MOL      0.054776
     35 H16        -2.0980   -7.0120   -0.7950 hc        1 MOL      0.080017
     36 H17        -0.9320   -6.8090    0.5720 hc        1 MOL      0.080017
     37 H18        -2.4870   -6.1120    0.6530 hc        1 MOL      0.080017
     38 N3          3.0280   -4.0430   -2.2350 n         1 MOL     -0.075135
     39 C13         3.5810   -3.4930   -3.5440 c3        1 MOL     -0.016807
     40 C14         4.9010   -2.7410   -3.4530 c         1 MOL      0.333445
     41 O6          5.4140   -2.2660   -4.4580 o         1 MOL     -0.538186
     42 C15         2.4980   -2.4520   -3.9830 c3        1 MOL     -0.205071
     43 C16         2.0320   -1.3910   -2.9440 c         1 MOL      0.773505
     44 O7          2.6170   -1.2890   -1.8380 o         1 MOL     -0.712117
     45 O8          1.1560   -0.5320   -3.3360 o         1 MOL     -0.712117
     46 H19         2.6870   -3.3150   -1.6140 hn        1 MOL      0.223219
     47 H20         3.6460   -4.1960   -4.3710 h1        1 MOL      0.103095
     48 H21         1.5970   -2.9510   -4.3380 hc        1 MOL      0.049299
     49 H22         2.9320   -1.8810   -4.7980 hc        1 MOL      0.049299
     50 N4          5.4200   -2.4710   -2.2550 n         1 MOL     -0.021710
     51 C17         6.7800   -2.0730   -1.9320 c3        1 MOL      0.099276
     52 C18         7.2150   -0.6490   -2.1820 c         1 MOL      0.346253
     53 O9          8.2980   -0.4110   -2.6810 o         1 MOL     -0.578142
     54 H23         4.9210   -2.7040   -1.4100 hn        1 MOL     -0.089784
     55 H24         7.5750   -2.7550   -2.2520 h1        1 MOL      0.021563
     56 H25         6.9080   -2.2350   -0.8580 h1        1 MOL      0.021563
     57 N5          6.3080    0.2700   -1.9040 n         1 MOL     -0.070668
     58 C19         6.4520    1.7670   -2.2800 c3        1 MOL     -0.143460
     59 C20         6.9450    2.7300   -1.1610 c         1 MOL      0.446231
     60 O10         7.1840    3.9500   -1.2710 o         1 MOL     -0.525185
     61 C21         5.1140    2.1630   -2.7500 c3        1 MOL     -0.101013
     62 C22         3.9270    1.8390   -1.8900 c         1 MOL      0.796578
     63 O11         4.0780    1.2790   -0.7940 o         1 MOL     -0.689185
     64 O12         2.8610    2.1830   -2.3170 o         1 MOL     -0.689185
     65 H26         5.4880    0.0030   -1.3760 hn        1 MOL      0.083500
     66 H27         7.2220    1.8190   -3.0570 h1        1 MOL      0.139709
     67 H28         4.9340    1.7060   -3.7230 hc        1 MOL      0.046009
     68 H29         5.1070    3.2350   -2.9830 hc        1 MOL      0.046009
     69 N6          7.1580    2.2020    0.0450 n         1 MOL     -0.304829
     70 C23         7.4220    2.9530    1.2650 c3        1 MOL     -0.021206
     71 C24         6.3640    3.8090    1.7640 c         1 MOL      0.451389
     72 O13         6.6210    4.7970    2.4270 o         1 MOL     -0.566671
     73 H30         7.0100    1.2030    0.0880 hn        1 MOL      0.199660
     74 H31         8.3140    3.5840    1.2530 h1        1 MOL      0.058501
     75 H32         7.6530    2.1860    2.0010 h1        1 MOL      0.058501
     76 N7          5.1610    3.4970    1.3590 n         1 MOL     -0.351198
     77 C25         3.9010    4.2150    1.4660 c3        1 MOL      0.093708
     78 C26         2.7060    3.2380    1.7650 c         1 MOL      0.407579
     79 O14         2.8440    2.0220    1.7550 o         1 MOL     -0.544022
     80 C27         3.6100    5.0540    0.1940 c3        1 MOL     -0.103516
     81 C28         4.7060    6.0590   -0.1010 c3        1 MOL     -0.230870
     82 C29         4.3400    7.0150   -1.2440 c         1 MOL      0.618808
     83 N8          4.7120    8.2880   -1.1220 n         1 MOL     -0.767135
     84 O15         3.5960    6.7240   -2.1770 o         1 MOL     -0.518742
     85 H33         5.1260    2.6230    0.8470 hn        1 MOL      0.296888
     86 H34         3.9110    4.8860    2.3190 h1        1 MOL      0.035051
     87 H35         2.6150    5.5050    0.2430 hc        1 MOL      0.067505
     88 H36         3.5980    4.3630   -0.6490 hc        1 MOL      0.067505
     89 H37         5.5990    5.5250   -0.4270 hc        1 MOL      0.096300
     90 H38         5.0310    6.6440    0.7560 hc        1 MOL      0.096300
     91 H39         5.3890    8.4830   -0.3970 hn        1 MOL      0.334296
     92 H40         4.6660    8.9140   -1.9240 hn        1 MOL      0.334296
     93 N9          1.5230    3.7960    2.0310 n         1 MOL     -0.423348
     94 C30         0.3370    2.8740    2.2790 c3        1 MOL      0.133319
     95 C31        -0.8920    3.2260    1.4550 c         1 MOL      0.506981
     96 O16        -1.2270    4.3750    1.3930 o         1 MOL     -0.533376
     97 C32         0.0010    2.7970    3.8070 c3        1 MOL      0.124966
     98 C33        -0.6910    4.0970    4.3540 c3        1 MOL     -0.267753
     99 C34        -0.9730    1.6220    4.1990 c3        1 MOL     -0.267753
    100 H41         1.4510    4.7810    2.2470 hn        1 MOL      0.292207
    101 H42         0.5170    1.8530    1.9700 h1        1 MOL     -0.041411
    102 H43         0.9210    2.7020    4.3730 hc        1 MOL      0.018404
    103 H44        -0.2890    4.9210    3.7630 hc        1 MOL      0.057299
    104 H45        -1.7550    4.2070    4.1630 hc        1 MOL      0.057299
    105 H46        -0.5150    4.2380    5.4230 hc        1 MOL      0.057299
    106 H47        -1.9860    1.6270    3.8030 hc        1 MOL      0.057299
    107 H48        -0.5110    0.6430    4.0930 hc        1 MOL      0.057299
    108 H49        -1.0320    1.6600    5.2830 hc        1 MOL      0.057299
    109 N10        -1.4710    2.2470    0.6720 n         1 MOL     -0.302370
    110 C35        -2.6230    2.4350   -0.1760 c3        1 MOL      0.091914
    111 C36        -4.0130    2.4040    0.6300 c         1 MOL      0.175686
    112 O17        -4.0340    2.1770    1.8380 o         1 MOL     -0.359080
    113 C37        -2.5990    1.2510   -1.1720 c3        1 MOL     -0.512348
    114 C38        -3.7260    1.2550   -2.2040 c         1 MOL      0.777346
    115 N11        -3.8090    2.2300   -3.0630 n         1 MOL     -0.768527
    116 O18        -4.5800    0.3780   -2.2250 o         1 MOL     -0.539991
    117 H50        -1.0480    1.3330    0.7530 hn        1 MOL      0.284037
    118 H51        -2.4780    3.4300   -0.6030 h1        1 MOL      0.075677
    119 H52        -2.5980    0.2850   -0.6750 hc        1 MOL      0.163069
    120 H53        -1.6590    1.4060   -1.6970 hc        1 MOL      0.163069
    121 H54        -3.0590    2.8950   -3.0460 hn        1 MOL      0.354899
    122 H55        -4.3170    2.1230   -3.9300 hn        1 MOL      0.354899
    123 N12        -5.1570    2.7550    0.0030 n         1 MOL     -0.010524
    124 C39        -6.4340    2.8200    0.7380 c3        1 MOL     -0.010076
    125 C40        -6.9350    1.4030    1.0280 c         1 MOL      0.440380
    126 O19        -7.6110    1.2300    1.9890 o         1 MOL     -0.551693
    127 C41        -7.5360    3.5570   -0.0860 c3        1 MOL     -0.142831
    128 C42        -7.7840    3.2060   -1.5410 ca        1 MOL      0.099305
    129 C43        -8.8740    2.3800   -1.8640 ca        1 MOL     -0.224570
    130 C44        -6.9320    3.6830   -2.5040 ca        1 MOL     -0.224570
    131 C45        -9.1710    2.1590   -3.1870 ca        1 MOL     -0.211913
    132 C46        -7.2230    3.4670   -3.8690 ca        1 MOL     -0.211913
    133 C47        -8.3400    2.6990   -4.2340 ca        1 MOL      0.324351
    134 O20        -8.5370    2.3750   -5.5070 oh        1 MOL     -0.536928
    135 H56        -5.1660    3.1470   -0.9240 hn        1 MOL      0.049533
    136 H57        -6.3310    3.3190    1.6940 h1        1 MOL      0.079990
    137 H58        -7.2510    4.6030   -0.0990 hc        1 MOL      0.051807
    138 H59        -8.5680    3.5450    0.2840 hc        1 MOL      0.051807
    139 H60        -9.5170    2.0370   -1.0610 ha        1 MOL      0.165422
    140 H61        -6.0330    4.2420   -2.2560 ha        1 MOL      0.165422
    141 H62       -10.0850    1.6550   -3.4700 ha        1 MOL      0.129723
    142 H63        -6.6890    3.9980   -4.6470 ha        1 MOL      0.129723
    143 H64        -8.8670    1.4810   -5.5100 ho        1 MOL      0.419138
    144 N13        -6.4920    0.3400    0.3040 n         1 MOL     -0.131961
    145 C48        -6.8720   -1.0680    0.5490 c3        1 MOL     -0.162572
    146 C49        -5.9470   -1.5940    1.6710 c         1 MOL      0.238163
    147 O21        -6.4170   -2.3580    2.5070 o         1 MOL     -0.464532
    148 C50        -6.8680   -1.9330   -0.7390 c3        1 MOL      0.141218
    149 C51        -8.1390   -1.5810   -1.5100 c3        1 MOL     -0.221300
    150 C52        -8.3310   -2.5500   -2.6450 c         1 MOL      0.613420
    151 O22        -9.1470   -3.5240   -2.5550 o         1 MOL     -0.717585
    152 O23        -7.5140   -2.5050   -3.6240 o         1 MOL     -0.717585
    153 H65        -6.0140    0.5270   -0.5600 hn        1 MOL      0.219933
    154 H66        -7.8500   -1.1310    1.0280 h1        1 MOL      0.133569
    155 H67        -6.8800   -2.9930   -0.5100 hc        1 MOL      0.039391
    156 H68        -5.9610   -1.7520   -1.3150 hc        1 MOL      0.039391
    157 H69        -8.1260   -0.5680   -1.9200 hc        1 MOL      0.019944
    158 H70        -8.9970   -1.6490   -0.8450 hc        1 MOL      0.019944
    159 N14        -4.6060   -1.3770    1.5990 n         1 MOL     -0.152843
    160 C53        -3.6810   -1.7060    2.7080 c3        1 MOL     -0.077033
    161 C54        -4.0930   -1.0170    3.9880 c         1 MOL      0.399349
    162 O24        -3.8650   -1.5780    5.0600 o         1 MOL     -0.542512
    163 C55        -2.2580   -1.2530    2.3840 c3        1 MOL     -0.002506
    164 C56        -1.5880   -1.9530    1.2040 c3        1 MOL     -0.286763
    165 C57        -0.1380   -1.4130    1.0790 c         1 MOL      0.779923
    166 O25         0.2230   -0.4030    1.6410 o         1 MOL     -0.719414
    167 O26         0.6680   -2.0350    0.3060 o         1 MOL     -0.719414
    168 H71        -4.2250   -0.9090    0.7930 hn        1 MOL      0.124082
    169 H72        -3.6820   -2.7850    2.8870 h1        1 MOL      0.119923
    170 H73        -1.6630   -1.3790    3.2940 hc        1 MOL      0.067971
    171 H74        -2.2670   -0.2000    2.1100 hc        1 MOL      0.067971
    172 H75        -2.0890   -1.7910    0.2570 hc        1 MOL      0.100894
    173 H76        -1.5430   -3.0060    1.4550 hc        1 MOL      0.100894
    174 N15        -4.6570    0.2350    3.8720 n         1 MOL      0.007698
    175 C58        -4.9500    1.0290    5.0240 c3        1 MOL     -0.188916
    176 H77        -6.0070    1.2980    5.0200 h1        1 MOL      0.061758
    177 H78        -4.7240    0.4600    5.9260 h1        1 MOL      0.061758
    178 H79        -4.3450    1.9350    5.0050 h1        1 MOL      0.061758
    179 H80        -4.5010    0.7220    3.0050 hn        1 MOL      0.093864
    180 Ca1         2.6860   -0.3320    0.6020 Ca        1 MOL      1.723884
    181 O27         5.0200   -0.0530    2.1500 oh        1 MOL     -0.835742
    182 H81         5.1790    0.4830    2.9320 ho        1 MOL      0.406390
    183 H82         5.8730   -0.4440    1.9450 ho        1 MOL      0.406390
    184 O28         2.4950   -1.0350    3.5170 oh        1 MOL     -0.835742
    185 H83         1.6760   -1.1670    3.9950 ho        1 MOL      0.406390
    186 H84         2.8140   -0.1790    3.8040 ho        1 MOL      0.406390
    187 O29         0.9760    0.9790   -0.9410 oh        1 MOL     -0.835742
    188 H85         1.5110    1.7090   -1.2460 ho        1 MOL      0.406390
    189 H86         1.0420    0.3260   -1.6370 ho        1 MOL      0.406390
@<TRIPOS>BOND
     1    1    2 1   
     2    1    4 1   
     3    1    5 1   
     4    1    6 1   
     5    2    3 2   
     6    2    7 1   
     7    7    8 1   
     8    7   15 1   
     9    8    9 1   
    10    8   11 1   
    11    8   16 1   
    12    9   10 2   
    13    9   19 1   
    14   11   12 1   
    15   11   17 1   
    16   11   18 1   
    17   12   13 1   
    18   12   14 1   
    19   19   20 1   
    20   19   27 1   
    21   20   21 1   
    22   20   23 1   
    23   20   28 1   
    24   21   22 2   
    25   21   38 1   
    26   23   24 1   
    27   23   25 1   
    28   23   29 1   
    29   24   26 1   
    30   24   30 1   
    31   24   31 1   
    32   25   32 1   
    33   25   33 1   
    34   25   34 1   
    35   26   35 1   
    36   26   36 1   
    37   26   37 1   
    38   38   39 1   
    39   38   46 1   
    40   39   40 1   
    41   39   42 1   
    42   39   47 1   
    43   40   41 2   
    44   40   50 1   
    45   42   43 1   
    46   42   48 1   
    47   42   49 1   
    48   43   44 1   
    49   43   45 1   
    50   50   51 1   
    51   50   54 1   
    52   51   52 1   
    53   51   55 1   
    54   51   56 1   
    55   52   53 2   
    56   52   57 1   
    57   57   58 1   
    58   57   65 1   
    59   58   59 1   
    60   58   61 1   
    61   58   66 1   
    62   59   60 2   
    63   59   69 1   
    64   61   62 1   
    65   61   67 1   
    66   61   68 1   
    67   62   63 1   
    68   62   64 1   
    69   69   70 1   
    70   69   73 1   
    71   70   71 1   
    72   70   74 1   
    73   70   75 1   
    74   71   72 2   
    75   71   76 1   
    76   76   77 1   
    77   76   85 1   
    78   77   78 1   
    79   77   80 1   
    80   77   86 1   
    81   78   79 2   
    82   78   93 1   
    83   80   81 1   
    84   80   87 1   
    85   80   88 1   
    86   81   82 1   
    87   81   89 1   
    88   81   90 1   
    89   82   83 1   
    90   82   84 2   
    91   83   91 1   
    92   83   92 1   
    93   93   94 1   
    94   93  100 1   
    95   94   95 1   
    96   94   97 1   
    97   94  101 1   
    98   95   96 2   
    99   95  109 1   
   100   97   98 1   
   101   97   99 1   
   102   97  102 1   
   103   98  103 1   
   104   98  104 1   
   105   98  105 1   
   106   99  106 1   
   107   99  107 1   
   108   99  108 1   
   109  109  110 1   
   110  109  117 1   
   111  110  111 1   
   112  110  113 1   
   113  110  118 1   
   114  111  112 2   
   115  111  123 1   
   116  113  114 1   
   117  113  119 1   
   118  113  120 1   
   119  114  115 1   
   120  114  116 2   
   121  115  121 1   
   122  115  122 1   
   123  123  124 1   
   124  123  135 1   
   125  124  125 1   
   126  124  127 1   
   127  124  136 1   
   128  125  126 2   
   129  125  144 1   
   130  127  128 1   
   131  127  137 1   
   132  127  138 1   
   133  128  129 ar  
   134  128  130 ar  
   135  129  131 ar  
   136  129  139 1   
   137  130  132 ar  
   138  130  140 1   
   139  131  133 ar  
   140  131  141 1   
   141  132  133 ar  
   142  132  142 1   
   143  133  134 1   
   144  134  143 1   
   145  144  145 1   
   146  144  153 1   
   147  145  146 1   
   148  145  148 1   
   149  145  154 1   
   150  146  147 2   
   151  146  159 1   
   152  148  149 1   
   153  148  155 1   
   154  148  156 1   
   155  149  150 1   
   156  149  157 1   
   157  149  158 1   
   158  150  151 1   
   159  150  152 1   
   160  159  160 1   
   161  159  168 1   
   162  160  161 1   
   163  160  163 1   
   164  160  169 1   
   165  161  162 2   
   166  161  174 1   
   167  163  164 1   
   168  163  170 1   
   169  163  171 1   
   170  164  165 1   
   171  164  172 1   
   172  164  173 1   
   173  165  166 1   
   174  165  167 1   
   175  174  175 1   
   176  174  179 1   
   177  175  176 1   
   178  175  177 1   
   179  175  178 1   
   180  181  182 1   
   181  181  183 1   
   182  184  185 1   
   183  184  186 1   
   184  187  188 1   
   185  187  189 1   
@<TRIPOS>SUBSTRUCTURE
     1 MOL         1 TEMP              0 ****  ****    0 ROOT
