@<TRIPOS>MOLECULE
MOL
  183   181     1     0     0
SMALL
resp


@<TRIPOS>ATOM
      1 C1          0.7780    2.1050   -6.4560 c3        1 MOL     -0.357777
      2 C2          0.9430    2.0720   -4.9390 c         1 MOL      0.832947
      3 O1          0.0810    2.5490   -4.2490 o         1 MOL     -0.621421
      4 H1          0.7940    1.0860   -6.8440 hc        1 MOL      0.073569
      5 H2         -0.1720    2.5750   -6.7080 hc        1 MOL      0.073569
      6 H3          1.5950    2.6740   -6.8980 hc        1 MOL      0.073569
      7 N1          1.9630    1.3790   -4.4670 n         1 MOL     -0.735648
      8 C3          2.3400    1.4950   -2.9740 c3        1 MOL      0.518183
      9 C4          2.8850    2.9090   -2.6970 c         1 MOL      0.353226
     10 O2          3.4500    3.5700   -3.5940 o         1 MOL     -0.565569
     11 C5          3.4420    0.3710   -2.8380 c3        1 MOL     -0.638563
     12 C6          4.4230    0.4360   -1.6570 c         1 MOL      1.022183
     13 O3          5.5780   -0.0450   -1.8320 o         1 MOL     -0.700604
     14 O4          3.9450    0.8460   -0.5870 o         1 MOL     -0.700604
     15 H4          2.5160    0.8110   -5.0830 hn        1 MOL      0.340741
     16 H5          1.5000    1.2910   -2.3130 h1        1 MOL     -0.014283
     17 H6          4.0100    0.5920   -3.7370 hc        1 MOL      0.105919
     18 H7          2.8870   -0.5590   -3.0110 hc        1 MOL      0.105919
     19 N2          2.5430    3.3700   -1.5070 n         1 MOL     -0.121703
     20 C7          2.7200    4.7440   -1.0340 c3        1 MOL     -0.098471
     21 C8          3.9160    4.8250   -0.1390 c         1 MOL      0.569427
     22 O5          4.4440    5.9640    0.0090 o         1 MOL     -0.593079
     23 C9          1.3970    5.1760   -0.3510 c3        1 MOL      0.298741
     24 C10         0.2600    4.8640   -1.2930 c3        1 MOL      0.282708
     25 C11         1.3850    6.6110    0.1270 c3        1 MOL     -0.283902
     26 C12        -1.1660    5.3510   -0.8700 c3        1 MOL     -0.271374
     27 H8          2.1280    2.7380   -0.8460 hn        1 MOL      0.031169
     28 H9          2.8430    5.3920   -1.9040 h1        1 MOL      0.058859
     29 H10         1.2480    4.5490    0.5190 hc        1 MOL     -0.015259
     30 H11         0.1830    3.8140   -1.5790 hc        1 MOL     -0.078384
     31 H12         0.5400    5.3130   -2.2410 hc        1 MOL     -0.078384
     32 H13         1.4570    7.3380   -0.6930 hc        1 MOL      0.048571
     33 H14         0.4150    6.7710    0.6050 hc        1 MOL      0.048571
     34 H15         2.0960    6.8230    0.9150 hc        1 MOL      0.048571
     35 H16        -1.8550    4.7700   -1.4790 hc        1 MOL      0.041788
     36 H17        -1.2800    5.1020    0.1800 hc        1 MOL      0.041788
     37 H18        -1.2180    6.4160   -1.1120 hc        1 MOL      0.041788
     38 N3          4.4110    3.7160    0.4940 n         1 MOL     -0.471159
     39 C13         5.4370    3.7400    1.5990 c3        1 MOL     -0.003652
     40 C14         6.5330    2.6620    1.4170 c         1 MOL      0.369363
     41 O6          7.2860    2.3520    2.3670 o         1 MOL     -0.484137
     42 C15         4.7590    3.8050    3.0010 c3        1 MOL     -0.275920
     43 C16         3.7640    2.6510    3.1990 c         1 MOL      0.825974
     44 O7          3.7720    1.6610    2.5060 o         1 MOL     -0.739423
     45 O8          2.8100    2.8210    3.9870 o         1 MOL     -0.739423
     46 H19         3.9560    2.8230    0.3530 hn        1 MOL      0.323258
     47 H20         5.9600    4.6770    1.4120 h1        1 MOL      0.107617
     48 H21         4.2420    4.7650    2.9980 hc        1 MOL      0.078597
     49 H22         5.4210    3.8540    3.8620 hc        1 MOL      0.078597
     50 N4          6.6900    2.1150    0.2310 n         1 MOL     -0.096502
     51 C17         7.8660    1.4570   -0.3270 c3        1 MOL     -0.243400
     52 C18         8.3390    0.2110    0.4490 c         1 MOL      0.462471
     53 O9          9.4520    0.1260    0.9840 o         1 MOL     -0.557462
     54 H23         5.8630    2.1190   -0.3400 hn        1 MOL      0.093940
     55 H24         8.6480    2.2150   -0.3160 h1        1 MOL      0.103696
     56 H25         7.6100    1.2070   -1.3570 h1        1 MOL      0.103696
     57 N5          7.3810   -0.7320    0.5540 n         1 MOL     -0.111941
     58 C19         7.5550   -1.9840    1.2570 c3        1 MOL     -0.128791
     59 C20         7.2830   -3.2560    0.3570 c         1 MOL      0.487274
     60 O10         7.6500   -4.3780    0.7400 o         1 MOL     -0.537143
     61 C21         6.5640   -1.9500    2.4100 c3        1 MOL      0.123185
     62 C22         5.0910   -1.5890    2.0460 c         1 MOL      0.670187
     63 O11         4.3670   -1.3050    2.9870 o         1 MOL     -0.738380
     64 O12         4.6580   -1.7790    0.9150 o         1 MOL     -0.738380
     65 H26         6.5390   -0.5630    0.0180 hn        1 MOL      0.015222
     66 H27         8.5600   -2.0940    1.6560 h1        1 MOL      0.096875
     67 H28         6.9550   -1.3160    3.2150 hc        1 MOL     -0.021237
     68 H29         6.4710   -2.9500    2.8550 hc        1 MOL     -0.021237
     69 N6          6.8370   -3.0520   -0.9400 n         1 MOL     -0.395416
     70 C23         6.4630   -4.1590   -1.8390 c3        1 MOL      0.017665
     71 C24         5.0700   -4.7390   -1.5730 c         1 MOL      0.534977
     72 O13         4.9240   -5.8910   -1.9080 o         1 MOL     -0.578491
     73 H30         6.6870   -2.1010   -1.2400 hn        1 MOL      0.288746
     74 H31         7.1620   -4.9920   -1.7160 h1        1 MOL      0.047993
     75 H32         6.6790   -3.9500   -2.8810 h1        1 MOL      0.047993
     76 N7          4.0930   -4.0180   -1.0300 n         1 MOL     -0.296242
     77 C25         2.6880   -4.4250   -1.0010 c3        1 MOL     -0.088091
     78 C26         1.8150   -3.1630   -1.1850 c         1 MOL      0.531224
     79 O14         2.0490   -2.0270   -0.7140 o         1 MOL     -0.739887
     80 C27         2.3510   -5.3900    0.1360 c3        1 MOL      0.043894
     81 C28         2.6970   -4.7130    1.4760 c3        1 MOL     -0.126086
     82 C29         1.5060   -3.8450    2.0200 c         1 MOL      0.479884
     83 N8          0.4800   -4.4170    2.5400 n         1 MOL     -0.649866
     84 O15         1.6260   -2.5570    2.0880 o         1 MOL     -0.530936
     85 H33         4.1940   -3.0900   -0.6430 hn        1 MOL      0.282982
     86 H34         2.4300   -4.9990   -1.8930 h1        1 MOL      0.038824
     87 H35         2.9190   -6.3140    0.0480 hc        1 MOL      0.007151
     88 H36         1.2880   -5.6140    0.2030 hc        1 MOL      0.007151
     89 H37         3.6040   -4.1050    1.4520 hc        1 MOL      0.073124
     90 H38         2.8290   -5.5200    2.1940 hc        1 MOL      0.073124
     91 H39         0.3830   -5.4170    2.6190 hn        1 MOL      0.333207
     92 H40        -0.2410   -3.8490    2.9710 hn        1 MOL      0.333207
     93 N9          0.7180   -3.4230   -1.8830 n         1 MOL     -0.248286
     94 C30        -0.4730   -2.5950   -1.9360 c3        1 MOL     -0.119432
     95 C31        -1.6140   -3.1850   -1.1260 c         1 MOL      0.512083
     96 O16        -2.1930   -4.1600   -1.4690 o         1 MOL     -0.566682
     97 C32        -0.9580   -2.3300   -3.4100 c3        1 MOL      0.164602
     98 C33        -1.7200   -1.0040   -3.4090 c3        1 MOL     -0.264620
     99 C34         0.1820   -2.3300   -4.4470 c3        1 MOL     -0.264620
    100 H41         0.6460   -4.3690   -2.2390 hn        1 MOL      0.246884
    101 H42        -0.1980   -1.6840   -1.4090 h1        1 MOL      0.270261
    102 H43        -1.6700   -3.0520   -3.8000 hc        1 MOL      0.002326
    103 H44        -2.5810   -0.9170   -2.7490 hc        1 MOL      0.056382
    104 H45        -1.0650   -0.1460   -3.2380 hc        1 MOL      0.056382
    105 H46        -2.2070   -0.9180   -4.3790 hc        1 MOL      0.056382
    106 H47         0.5140   -3.3620   -4.5850 hc        1 MOL      0.056382
    107 H48        -0.0340   -1.8610   -5.4100 hc        1 MOL      0.056382
    108 H49         1.0730   -1.8860   -3.9960 hc        1 MOL      0.056382
    109 N10        -2.0180   -2.4930   -0.0280 n         1 MOL     -0.209868
    110 C35        -3.2360   -2.6090    0.7710 c3        1 MOL     -0.054765
    111 C36        -4.4780   -2.1250   -0.0450 c         1 MOL      0.539573
    112 O17        -4.3670   -1.2270   -0.8780 o         1 MOL     -0.374029
    113 C37        -3.0100   -1.7610    2.0110 c3        1 MOL     -0.535510
    114 C38        -1.8880   -2.2130    2.9470 c         1 MOL      0.888715
    115 N11        -0.7870   -1.4620    3.0290 n         1 MOL     -0.853051
    116 O18        -1.9500   -3.1560    3.7190 o         1 MOL     -0.653344
    117 H50        -1.5210   -1.6150    0.0700 hn        1 MOL      0.052877
    118 H51        -3.4840   -3.6570    0.9630 h1        1 MOL      0.102684
    119 H52        -3.9090   -1.6960    2.6290 hc        1 MOL      0.133178
    120 H53        -2.6980   -0.7760    1.6680 hc        1 MOL      0.133178
    121 H54        -0.7470   -0.8230    2.2450 hn        1 MOL      0.411661
    122 H55         0.0500   -1.6780    3.5600 hn        1 MOL      0.411661
    123 N12        -5.7430   -2.4500    0.3300 n         1 MOL     -0.613903
    124 C39        -6.9180   -1.7310   -0.1530 c3        1 MOL      0.301033
    125 C40        -6.7960   -0.2670    0.1730 c         1 MOL      0.539750
    126 O19        -6.9830    0.5400   -0.7140 o         1 MOL     -0.567681
    127 C41        -8.1980   -2.3070    0.4820 c3        1 MOL     -0.305648
    128 C42        -9.4060   -1.7310   -0.2230 ca        1 MOL      0.211095
    129 C43        -9.7320   -1.9280   -1.5400 ca        1 MOL     -0.286742
    130 C44       -10.2820   -1.0570    0.5980 ca        1 MOL     -0.286742
    131 C45       -10.8690   -1.3900   -2.0700 ca        1 MOL     -0.108063
    132 C46       -11.4900   -0.4940    0.0380 ca        1 MOL     -0.108063
    133 C47       -11.8180   -0.7630   -1.3180 ca        1 MOL      0.200870
    134 O20       -12.9130   -0.2260   -1.9160 oh        1 MOL     -0.510583
    135 H56        -5.8230   -3.1480    1.0530 hn        1 MOL      0.308217
    136 H57        -6.9820   -1.9430   -1.2120 h1        1 MOL      0.043829
    137 H58        -8.2230   -2.2080    1.5580 hc        1 MOL      0.088263
    138 H59        -8.2540   -3.3780    0.2590 hc        1 MOL      0.088263
    139 H60        -8.9860   -2.4800   -2.0910 ha        1 MOL      0.154740
    140 H61       -10.1470   -0.9270    1.6550 ha        1 MOL      0.154740
    141 H62       -11.1710   -1.5750   -3.0880 ha        1 MOL      0.106441
    142 H63       -12.1590    0.1260    0.6080 ha        1 MOL      0.106441
    143 H64       -13.3460    0.4940   -1.4560 ho        1 MOL      0.385808
    144 N13        -6.2560    0.1050    1.3190 n         1 MOL     -0.418539
    145 C48        -5.9920    1.4580    1.7800 c3        1 MOL     -0.046962
    146 C49        -5.0150    2.2260    0.9570 c         1 MOL      0.379977
    147 O21        -5.0070    3.4520    1.0740 o         1 MOL     -0.560002
    148 C50        -5.5200    1.3960    3.2230 c3        1 MOL      0.117546
    149 C51        -6.7650    1.4250    4.1480 c3        1 MOL     -0.148825
    150 C52        -6.4370    1.7320    5.6400 c         1 MOL      0.640732
    151 O22        -7.4120    2.1650    6.3630 o         1 MOL     -0.721868
    152 O23        -5.2150    1.6840    6.0490 o         1 MOL     -0.721868
    153 H65        -6.1610   -0.6830    1.9390 hn        1 MOL      0.258050
    154 H66        -6.9070    2.0160    1.6180 h1        1 MOL      0.110961
    155 H67        -4.9340    2.2960    3.3690 hc        1 MOL      0.027547
    156 H68        -4.8780    0.5290    3.3920 hc        1 MOL      0.027547
    157 H69        -7.3910    0.5280    4.1030 hc        1 MOL     -0.007495
    158 H70        -7.4500    2.2350    3.8960 hc        1 MOL     -0.007495
    159 N14        -4.3100    1.6590    0.0410 n         1 MOL     -0.040238
    160 C53        -3.4850    2.2970   -0.9820 c3        1 MOL      0.027048
    161 C54        -4.0320    2.1030   -2.3970 c         1 MOL      0.355908
    162 O24        -3.9050    2.9870   -3.1700 o         1 MOL     -0.517132
    163 C55        -2.0800    1.6510   -0.9430 c3        1 MOL      0.171917
    164 C56        -1.4180    1.7560    0.3810 c3        1 MOL     -0.041851
    165 C57        -0.0810    1.0210    0.4530 c         1 MOL      0.539340
    166 O25         1.0440    1.5440    0.2980 o         1 MOL     -0.614689
    167 O26        -0.1710   -0.1780    0.6690 o         1 MOL     -0.614689
    168 H71        -4.1560    0.6650    0.1000 hn        1 MOL      0.127168
    169 H72        -3.4540    3.3830   -0.8870 h1        1 MOL      0.088735
    170 H73        -1.4260    1.9920   -1.7550 hc        1 MOL      0.006530
    171 H74        -2.1560    0.5670   -0.9920 hc        1 MOL      0.006530
    172 H75        -2.1380    1.3920    1.1050 hc        1 MOL     -0.022521
    173 H76        -1.3680    2.8390    0.5230 hc        1 MOL     -0.022521
    174 N15        -4.6540    0.9510   -2.7040 n         1 MOL     -0.047387
    175 C58        -5.3920    0.7910   -3.9650 c3        1 MOL     -0.266134
    176 H77        -4.9560   -0.0260   -4.5390 h1        1 MOL      0.088822
    177 H78        -6.4370    0.5650   -3.7490 h1        1 MOL      0.088822
    178 H79        -5.3310    1.7130   -4.5430 h1        1 MOL      0.088822
    179 H80        -4.7530    0.2030   -2.0300 hn        1 MOL      0.087474
    180 Ca1         2.6340   -0.2910    1.2120 Ca        1 MOL      1.761501
    181 O27         1.8890    0.1250    3.8080 oh        1 MOL     -0.859463
    182 H81         2.4060    0.9240    3.9050 ho        1 MOL      0.404094
    183 H82         2.0760   -0.3840    4.5870 ho        1 MOL      0.404094
@<TRIPOS>BOND
     1    1    2 1   
     2    1    4 1   
     3    1    5 1   
     4    1    6 1   
     5    2    3 2   
     6    2    7 1   
     7    7    8 1   
     8    7   15 1   
     9    8    9 1   
    10    8   11 1   
    11    8   16 1   
    12    9   10 2   
    13    9   19 1   
    14   11   12 1   
    15   11   17 1   
    16   11   18 1   
    17   12   13 1   
    18   12   14 1   
    19   19   20 1   
    20   19   27 1   
    21   20   21 1   
    22   20   23 1   
    23   20   28 1   
    24   21   22 2   
    25   21   38 1   
    26   23   24 1   
    27   23   25 1   
    28   23   29 1   
    29   24   26 1   
    30   24   30 1   
    31   24   31 1   
    32   25   32 1   
    33   25   33 1   
    34   25   34 1   
    35   26   35 1   
    36   26   36 1   
    37   26   37 1   
    38   38   39 1   
    39   38   46 1   
    40   39   40 1   
    41   39   42 1   
    42   39   47 1   
    43   40   41 2   
    44   40   50 1   
    45   42   43 1   
    46   42   48 1   
    47   42   49 1   
    48   43   44 1   
    49   43   45 1   
    50   50   51 1   
    51   50   54 1   
    52   51   52 1   
    53   51   55 1   
    54   51   56 1   
    55   52   53 2   
    56   52   57 1   
    57   57   58 1   
    58   57   65 1   
    59   58   59 1   
    60   58   61 1   
    61   58   66 1   
    62   59   60 2   
    63   59   69 1   
    64   61   62 1   
    65   61   67 1   
    66   61   68 1   
    67   62   63 1   
    68   62   64 1   
    69   69   70 1   
    70   69   73 1   
    71   70   71 1   
    72   70   74 1   
    73   70   75 1   
    74   71   72 2   
    75   71   76 1   
    76   76   77 1   
    77   76   85 1   
    78   77   78 1   
    79   77   80 1   
    80   77   86 1   
    81   78   79 2   
    82   78   93 1   
    83   80   81 1   
    84   80   87 1   
    85   80   88 1   
    86   81   82 1   
    87   81   89 1   
    88   81   90 1   
    89   82   83 1   
    90   82   84 2   
    91   83   91 1   
    92   83   92 1   
    93   93   94 1   
    94   93  100 1   
    95   94   95 1   
    96   94   97 1   
    97   94  101 1   
    98   95   96 2   
    99   95  109 1   
   100   97   98 1   
   101   97   99 1   
   102   97  102 1   
   103   98  103 1   
   104   98  104 1   
   105   98  105 1   
   106   99  106 1   
   107   99  107 1   
   108   99  108 1   
   109  109  110 1   
   110  109  117 1   
   111  110  111 1   
   112  110  113 1   
   113  110  118 1   
   114  111  112 2   
   115  111  123 1   
   116  113  114 1   
   117  113  119 1   
   118  113  120 1   
   119  114  115 1   
   120  114  116 2   
   121  115  121 1   
   122  115  122 1   
   123  123  124 1   
   124  123  135 1   
   125  124  125 1   
   126  124  127 1   
   127  124  136 1   
   128  125  126 2   
   129  125  144 1   
   130  127  128 1   
   131  127  137 1   
   132  127  138 1   
   133  128  129 ar  
   134  128  130 ar  
   135  129  131 ar  
   136  129  139 1   
   137  130  132 ar  
   138  130  140 1   
   139  131  133 ar  
   140  131  141 1   
   141  132  133 ar  
   142  132  142 1   
   143  133  134 1   
   144  134  143 1   
   145  144  145 1   
   146  144  153 1   
   147  145  146 1   
   148  145  148 1   
   149  145  154 1   
   150  146  147 2   
   151  146  159 1   
   152  148  149 1   
   153  148  155 1   
   154  148  156 1   
   155  149  150 1   
   156  149  157 1   
   157  149  158 1   
   158  150  151 1   
   159  150  152 1   
   160  159  160 1   
   161  159  168 1   
   162  160  161 1   
   163  160  163 1   
   164  160  169 1   
   165  161  162 2   
   166  161  174 1   
   167  163  164 1   
   168  163  170 1   
   169  163  171 1   
   170  164  165 1   
   171  164  172 1   
   172  164  173 1   
   173  165  166 1   
   174  165  167 1   
   175  174  175 1   
   176  174  179 1   
   177  175  176 1   
   178  175  177 1   
   179  175  178 1   
   180  181  182 1   
   181  181  183 1   
@<TRIPOS>SUBSTRUCTURE
     1 MOL         1 TEMP              0 ****  ****    0 ROOT
