@<TRIPOS>MOLECULE
MOL
  175   173     1     0     0
SMALL
resp


@<TRIPOS>ATOM
      1 C1          0.2480   -3.5030    5.8620 c3        1 MOL     -0.378493
      2 C2          0.6040   -3.5260    4.3360 c         1 MOL      0.645227
      3 O1         -0.2670   -3.7900    3.5100 o         1 MOL     -0.514384
      4 H1         -0.0470   -4.5030    6.1810 hc        1 MOL      0.090176
      5 H2          1.1190   -3.1820    6.4340 hc        1 MOL      0.090176
      6 H3         -0.5760   -2.8090    6.0340 hc        1 MOL      0.090176
      7 N1          1.8760   -3.2960    4.0100 n         1 MOL     -0.547113
      8 C3          2.4130   -3.2820    2.6580 c3        1 MOL      0.113266
      9 C4          2.3650   -4.5260    1.7890 c         1 MOL      0.508610
     10 O2          2.3740   -5.7210    2.1710 o         1 MOL     -0.576678
     11 C5          3.9280   -2.8500    2.7830 c3        1 MOL     -0.304689
     12 C6          4.5290   -2.3170    1.4690 c         1 MOL      0.727039
     13 O3          5.7480   -2.0920    1.4080 o         1 MOL     -0.670961
     14 O4          3.6900   -1.9840    0.5440 o         1 MOL     -0.670961
     15 H4          2.4650   -3.0550    4.7930 hn        1 MOL      0.309113
     16 H5          1.8860   -2.5140    2.1070 h1        1 MOL      0.123577
     17 H6          4.5330   -3.6960    3.0990 hc        1 MOL      0.053381
     18 H7          3.9640   -2.0650    3.5500 hc        1 MOL      0.053381
     19 N2          2.3380   -4.3110    0.4420 n         1 MOL     -0.447968
     20 C7          2.3240   -5.3190   -0.6170 c3        1 MOL      0.282708
     21 C8          3.0990   -4.9310   -1.8460 c         1 MOL      0.580974
     22 O5          2.9000   -5.5660   -2.8300 o         1 MOL     -0.557437
     23 C9          0.8440   -5.6470   -0.8700 c3        1 MOL     -0.198787
     24 H8          2.2260   -3.3400    0.2010 hn        1 MOL      0.357930
     25 H9          2.8110   -6.2420   -0.2970 h1        1 MOL     -0.004617
     26 H10         0.5220   -4.8660   -1.5530 hc        1 MOL      0.036715
     27 H11         0.7980   -6.5200   -1.5120 hc        1 MOL      0.036715
     28 H12         0.1240   -5.6280   -0.0500 hc        1 MOL      0.036715
     29 N3          3.9720   -3.8970   -1.7860 n         1 MOL     -0.594748
     30 C10         4.6900   -3.4860   -3.0180 c3        1 MOL      0.429084
     31 C11         6.1130   -2.9600   -2.7530 c         1 MOL      0.275792
     32 O6          7.0010   -3.3680   -3.5100 o         1 MOL     -0.550648
     33 C12         3.9070   -2.4130   -3.8480 c3        1 MOL     -0.240450
     34 C13         3.1130   -1.4290   -2.9890 c         1 MOL      0.704290
     35 O7          3.7340   -0.8620   -2.0680 o         1 MOL     -0.691815
     36 O8          1.8800   -1.2690   -3.0670 o         1 MOL     -0.691815
     37 H13         4.1320   -3.3470   -0.9540 hn        1 MOL      0.160621
     38 H14         4.7840   -4.2980   -3.7330 h1        1 MOL     -0.014793
     39 H15         3.1800   -2.9000   -4.5000 hc        1 MOL      0.040074
     40 H16         4.6050   -1.7820   -4.3940 hc        1 MOL      0.040074
     41 N4          6.3390   -2.1000   -1.7240 n         1 MOL     -0.082711
     42 C14         7.6130   -1.4020   -1.4000 c3        1 MOL     -0.224284
     43 C15         7.5430    0.1660   -1.4680 c         1 MOL      0.508179
     44 O9          8.5590    0.8620   -1.2220 o         1 MOL     -0.624817
     45 H17         5.5290   -1.8570   -1.1670 hn        1 MOL      0.191712
     46 H18         8.4840   -1.7740   -1.9520 h1        1 MOL      0.122979
     47 H19         7.6710   -1.6460   -0.3490 h1        1 MOL      0.122979
     48 N5          6.3970    0.7840   -1.6310 n         1 MOL     -0.102718
     49 C16         6.1740    2.2160   -2.1010 c3        1 MOL     -0.255089
     50 C17         6.0530    3.3170   -1.0380 c         1 MOL      0.538325
     51 O10         5.9840    4.4760   -1.4290 o         1 MOL     -0.500569
     52 C18         5.0080    2.2830   -3.1010 c3        1 MOL     -0.013673
     53 C19         3.5930    2.1210   -2.5060 c         1 MOL      0.451468
     54 N6          2.6000    2.0690   -3.3880 n         1 MOL     -0.652959
     55 O11         3.3650    2.1800   -1.2960 o         1 MOL     -0.296689
     56 H20         5.6360    0.1280   -1.6110 hn        1 MOL      0.046247
     57 H21         7.1330    2.5050   -2.5550 h1        1 MOL      0.155096
     58 H22         5.1110    1.5300   -3.8810 hc        1 MOL      0.045813
     59 H23         5.0870    3.2220   -3.6470 hc        1 MOL      0.045813
     60 H24         2.7160    2.1310   -4.3890 hn        1 MOL      0.331094
     61 H25         1.6450    1.9440   -3.0750 hn        1 MOL      0.331094
     62 N7          6.2420    3.0150    0.2910 n         1 MOL     -0.299664
     63 C20         6.2000    4.0610    1.3180 c3        1 MOL     -0.236196
     64 C21         4.8070    4.6720    1.6090 c         1 MOL      0.595384
     65 O12         4.7340    5.6860    2.3250 o         1 MOL     -0.596036
     66 H26         6.4600    2.0680    0.5610 hn        1 MOL      0.286795
     67 H27         6.9130    4.8060    0.9720 h1        1 MOL      0.108538
     68 H28         6.5340    3.5680    2.2240 h1        1 MOL      0.108538
     69 N8          3.7190    4.0860    1.0730 n         1 MOL     -0.229065
     70 C22         2.3410    4.5500    1.3560 c3        1 MOL     -0.117615
     71 C23         1.3810    3.4020    1.5850 c         1 MOL      0.547411
     72 O13         1.6170    2.3450    0.9800 o         1 MOL     -0.546235
     73 C24         1.7570    5.3920    0.1440 c3        1 MOL      0.460902
     74 C25         2.4020    6.7520    0.0990 c3        1 MOL     -0.426362
     75 O14         2.1150    4.8080   -1.0750 oh        1 MOL     -0.576329
     76 H29         3.8650    3.2880    0.4660 hn        1 MOL      0.085338
     77 H30         2.3440    5.2150    2.2180 h1        1 MOL      0.060785
     78 H31         0.6780    5.4590    0.2540 h1        1 MOL     -0.001238
     79 H32         1.9940    3.8570   -1.0380 ho        1 MOL      0.307309
     80 H33         3.3290    6.7520   -0.4590 hc        1 MOL      0.104864
     81 H34         1.6970    7.5200   -0.2380 hc        1 MOL      0.104864
     82 H35         2.4940    7.3030    1.0380 hc        1 MOL      0.104864
     83 N9          0.2660    3.5620    2.3460 n         1 MOL     -0.521248
     84 C26        -0.8780    2.6290    2.3790 c3        1 MOL     -0.001953
     85 C27        -1.7020    2.7570    1.1200 c         1 MOL      0.537238
     86 O15        -2.0830    3.8720    0.7390 o         1 MOL     -0.606538
     87 C28        -1.6910    2.7360    3.6910 c3        1 MOL      0.078313
     88 C29        -0.7630    2.3580    4.8630 c3        1 MOL      0.129998
     89 C30        -2.9540    1.8840    3.4200 c3        1 MOL     -0.152511
     90 C31        -1.3200    2.8670    6.2110 c3        1 MOL     -0.146945
     91 H36         0.0960    4.4640    2.7690 hn        1 MOL      0.274002
     92 H37        -0.4210    1.6510    2.4080 h1        1 MOL      0.049984
     93 H38        -2.0400    3.7590    3.8380 hc        1 MOL      0.011892
     94 H39         0.2730    2.6660    4.8140 hc        1 MOL     -0.024477
     95 H40        -0.6260    1.2830    4.9250 hc        1 MOL     -0.024477
     96 H41        -3.5340    2.2790    2.5870 hc        1 MOL      0.027550
     97 H42        -2.6070    0.8600    3.2820 hc        1 MOL      0.027550
     98 H43        -3.4300    1.8450    4.4020 hc        1 MOL      0.027550
     99 H44        -2.2150    2.3040    6.4520 hc        1 MOL      0.023720
    100 H45        -0.6160    2.6850    7.0200 hc        1 MOL      0.023720
    101 H46        -1.5640    3.9320    6.1820 hc        1 MOL      0.023720
    102 N10        -1.8120    1.6890    0.3530 n         1 MOL     -0.217120
    103 C32        -2.7190    1.7320   -0.8310 c3        1 MOL      0.049223
    104 C33        -4.1280    1.3350   -0.5640 c         1 MOL      0.419047
    105 O16        -4.3990    0.6540    0.4510 o         1 MOL     -0.299252
    106 C34        -2.1660    0.9060   -1.9770 c3        1 MOL     -0.222199
    107 C35        -0.7220    1.3610   -2.4170 c         1 MOL      0.646942
    108 O17         0.3190    1.2040   -1.7470 o         1 MOL     -0.657258
    109 O18        -0.7030    1.7720   -3.6120 o         1 MOL     -0.657258
    110 H47        -1.3200    0.8280    0.5860 hn        1 MOL      0.238772
    111 H48        -2.8460    2.7090   -1.3130 h1        1 MOL      0.052902
    112 H49        -2.8390    1.0140   -2.8260 hc        1 MOL      0.075700
    113 H50        -2.0900   -0.1390   -1.6690 hc        1 MOL      0.075700
    114 N11        -5.0020    1.8150   -1.4450 n         1 MOL     -0.675391
    115 C36        -6.4970    1.5510   -1.2510 c3        1 MOL      0.418610
    116 C37        -6.8190    0.0260   -1.0020 c         1 MOL      0.361828
    117 O19        -7.5960   -0.0760   -0.0300 o         1 MOL     -0.515873
    118 C38        -7.1960    2.1700   -2.4490 c3        1 MOL     -0.103573
    119 C39        -8.6800    1.9110   -2.6040 ca        1 MOL      0.068244
    120 C40        -9.5630    2.0170   -1.5390 ca        1 MOL     -0.185143
    121 C41        -9.1890    1.5010   -3.8670 ca        1 MOL     -0.185143
    122 C42       -10.9360    1.6920   -1.7020 ca        1 MOL     -0.017842
    123 C43       -10.5650    1.2460   -4.0770 ca        1 MOL     -0.017842
    124 C44       -11.4520    1.3590   -2.9810 ca        1 MOL     -0.241738
    125 H51        -4.6870    2.4710   -2.1390 hn        1 MOL      0.365673
    126 H52        -6.7180    2.1050   -0.3310 h1        1 MOL      0.034264
    127 H53        -6.6570    2.0100   -3.3790 hc        1 MOL      0.036275
    128 H54        -7.0740    3.2460   -2.3510 hc        1 MOL      0.036275
    129 H55        -9.1920    2.3240   -0.5690 ha        1 MOL      0.108045
    130 H56        -8.6020    1.6280   -4.7720 ha        1 MOL      0.108045
    131 H57       -11.6740    1.9750   -0.9580 ha        1 MOL      0.085313
    132 H58       -10.8990    1.1460   -5.1040 ha        1 MOL      0.085313
    133 H59       -12.5250    1.2140   -3.0010 ha        1 MOL      0.132909
    134 N12        -6.3080   -1.0450   -1.6610 n         1 MOL     -0.217211
    135 C45        -6.5640   -2.4810   -1.1910 c3        1 MOL      0.249066
    136 C46        -6.0610   -2.7780    0.2520 c         1 MOL      0.187623
    137 O20        -6.7430   -3.4740    1.0140 o         1 MOL     -0.469012
    138 C47        -5.9240   -3.3660   -2.2780 c3        1 MOL     -0.199362
    139 C48        -4.7520   -2.4490   -2.7610 c3        1 MOL      0.048247
    140 C49        -5.3750   -1.0550   -2.7470 c3        1 MOL     -0.031103
    141 H60        -7.6370   -2.6810   -1.1830 h1        1 MOL      0.028895
    142 H61        -5.5170   -4.2520   -1.7990 hc        1 MOL      0.070227
    143 H62        -6.7890   -3.5870   -2.9020 hc        1 MOL      0.070227
    144 H63        -3.9420   -2.4680   -2.0350 hc        1 MOL      0.031323
    145 H64        -4.4070   -2.8500   -3.7200 hc        1 MOL      0.031323
    146 H65        -4.6300   -0.2730   -2.6050 h1        1 MOL      0.032304
    147 H66        -5.9410   -0.8890   -3.6670 h1        1 MOL      0.032304
    148 N13        -4.8480   -2.2360    0.5260 n         1 MOL      0.191220
    149 C50        -4.0880   -2.3360    1.7710 c3        1 MOL     -0.256064
    150 C51        -4.8610   -1.7960    2.9510 c         1 MOL      0.455739
    151 O21        -4.9540   -2.4680    3.9810 o         1 MOL     -0.545206
    152 C52        -2.6990   -1.7430    1.7630 c3        1 MOL      0.044730
    153 C53        -1.8180   -2.2330    0.6350 c3        1 MOL     -0.260013
    154 C54        -0.4090   -1.5880    0.5950 c         1 MOL      0.566353
    155 O22        -0.1500   -0.4180    0.9840 o         1 MOL     -0.683069
    156 O23         0.5340   -2.2230    0.0310 o         1 MOL     -0.683069
    157 H67        -4.4210   -1.6360   -0.1650 hn        1 MOL     -0.162430
    158 H68        -4.0500   -3.3930    2.0060 h1        1 MOL      0.126910
    159 H69        -2.1630   -1.9850    2.6790 hc        1 MOL      0.044757
    160 H70        -2.8400   -0.6670    1.6270 hc        1 MOL      0.044757
    161 H71        -2.2820   -2.0430   -0.3290 hc        1 MOL      0.135225
    162 H72        -1.7240   -3.3150    0.7380 hc        1 MOL      0.135225
    163 N14        -5.5400   -0.5960    2.8940 n         1 MOL     -0.020510
    164 C55        -6.4350   -0.0160    3.9110 c3        1 MOL     -0.222654
    165 H73        -5.9920   -0.1440    4.8990 h1        1 MOL      0.081173
    166 H74        -6.5720    1.0470    3.7110 h1        1 MOL      0.081173
    167 H75        -7.4000   -0.5200    3.8780 h1        1 MOL      0.081173
    168 H76        -5.3180   -0.0460    2.0730 hn        1 MOL      0.048039
    169 Ca1         2.0310   -0.0090   -0.3360 Ca        1 MOL      1.663170
    170 O24         4.2700    0.9180    1.2700 oh        1 MOL     -0.773604
    171 H77         3.6980    0.8900    2.0420 ho        1 MOL      0.385398
    172 H78         5.1270    0.6430    1.6040 ho        1 MOL      0.385398
    173 O25         2.2910    0.1190    2.8290 oh        1 MOL     -0.773604
    174 H79         1.3630   -0.1100    2.9540 ho        1 MOL      0.385398
    175 H80         2.6180    0.2620    3.7120 ho        1 MOL      0.385398
@<TRIPOS>BOND
     1    1    2 1   
     2    1    4 1   
     3    1    5 1   
     4    1    6 1   
     5    2    3 2   
     6    2    7 1   
     7    7    8 1   
     8    7   15 1   
     9    8    9 1   
    10    8   11 1   
    11    8   16 1   
    12    9   10 2   
    13    9   19 1   
    14   11   12 1   
    15   11   17 1   
    16   11   18 1   
    17   12   13 1   
    18   12   14 1   
    19   19   20 1   
    20   19   24 1   
    21   20   21 1   
    22   20   23 1   
    23   20   25 1   
    24   21   22 2   
    25   21   29 1   
    26   23   26 1   
    27   23   27 1   
    28   23   28 1   
    29   29   30 1   
    30   29   37 1   
    31   30   31 1   
    32   30   33 1   
    33   30   38 1   
    34   31   32 2   
    35   31   41 1   
    36   33   34 1   
    37   33   39 1   
    38   33   40 1   
    39   34   35 1   
    40   34   36 1   
    41   41   42 1   
    42   41   45 1   
    43   42   43 1   
    44   42   46 1   
    45   42   47 1   
    46   43   44 2   
    47   43   48 1   
    48   48   49 1   
    49   48   56 1   
    50   49   50 1   
    51   49   52 1   
    52   49   57 1   
    53   50   51 2   
    54   50   62 1   
    55   52   53 1   
    56   52   58 1   
    57   52   59 1   
    58   53   54 1   
    59   53   55 2   
    60   54   60 1   
    61   54   61 1   
    62   62   63 1   
    63   62   66 1   
    64   63   64 1   
    65   63   67 1   
    66   63   68 1   
    67   64   65 2   
    68   64   69 1   
    69   69   70 1   
    70   69   76 1   
    71   70   71 1   
    72   70   73 1   
    73   70   77 1   
    74   71   72 2   
    75   71   83 1   
    76   73   74 1   
    77   73   75 1   
    78   73   78 1   
    79   74   80 1   
    80   74   81 1   
    81   74   82 1   
    82   75   79 1   
    83   83   84 1   
    84   83   91 1   
    85   84   85 1   
    86   84   87 1   
    87   84   92 1   
    88   85   86 2   
    89   85  102 1   
    90   87   88 1   
    91   87   89 1   
    92   87   93 1   
    93   88   90 1   
    94   88   94 1   
    95   88   95 1   
    96   89   96 1   
    97   89   97 1   
    98   89   98 1   
    99   90   99 1   
   100   90  100 1   
   101   90  101 1   
   102  102  103 1   
   103  102  110 1   
   104  103  104 1   
   105  103  106 1   
   106  103  111 1   
   107  104  105 2   
   108  104  114 1   
   109  106  107 1   
   110  106  112 1   
   111  106  113 1   
   112  107  108 1   
   113  107  109 1   
   114  114  115 1   
   115  114  125 1   
   116  115  116 1   
   117  115  118 1   
   118  115  126 1   
   119  116  117 2   
   120  116  134 1   
   121  118  119 1   
   122  118  127 1   
   123  118  128 1   
   124  119  120 ar  
   125  119  121 ar  
   126  120  122 ar  
   127  120  129 1   
   128  121  123 ar  
   129  121  130 1   
   130  122  124 ar  
   131  122  131 1   
   132  123  124 ar  
   133  123  132 1   
   134  124  133 1   
   135  134  135 1   
   136  134  140 1   
   137  135  136 1   
   138  135  138 1   
   139  135  141 1   
   140  136  137 2   
   141  136  148 1   
   142  138  139 1   
   143  138  142 1   
   144  138  143 1   
   145  139  140 1   
   146  139  144 1   
   147  139  145 1   
   148  140  146 1   
   149  140  147 1   
   150  148  149 1   
   151  148  157 1   
   152  149  150 1   
   153  149  152 1   
   154  149  158 1   
   155  150  151 2   
   156  150  163 1   
   157  152  153 1   
   158  152  159 1   
   159  152  160 1   
   160  153  154 1   
   161  153  161 1   
   162  153  162 1   
   163  154  155 1   
   164  154  156 1   
   165  163  164 1   
   166  163  168 1   
   167  164  165 1   
   168  164  166 1   
   169  164  167 1   
   170  170  171 1   
   171  170  172 1   
   172  173  174 1   
   173  173  175 1   
@<TRIPOS>SUBSTRUCTURE
     1 MOL         1 TEMP              0 ****  ****    0 ROOT
