@<TRIPOS>MOLECULE
MOL
  182   178     1     0     0
SMALL
resp


@<TRIPOS>ATOM
      1 C1         -1.6260   -2.1390    6.4840 c3        1 MOL     -0.256199
      2 C2         -1.3320   -1.8270    5.0250 c         1 MOL      0.783113
      3 O1         -2.2260   -1.5310    4.2890 o         1 MOL     -0.610856
      4 H1         -1.7300   -3.2160    6.6100 hc        1 MOL      0.056188
      5 H2         -0.8060   -1.7780    7.1050 hc        1 MOL      0.056188
      6 H3         -2.5520   -1.6470    6.7820 hc        1 MOL      0.056188
      7 N1         -0.1180   -2.1140    4.6160 n         1 MOL     -0.616376
      8 C3          0.3120   -2.0650    3.2040 c3        1 MOL      0.121706
      9 C4          0.2640   -3.4200    2.4620 c         1 MOL      0.721652
     10 O2          0.7150   -4.3700    3.0700 o         1 MOL     -0.594369
     11 C5          1.7490   -1.4640    3.2040 c3        1 MOL     -0.363366
     12 C6          2.5690   -1.5770    1.8850 c         1 MOL      0.920350
     13 O3          2.0850   -1.9680    0.7950 o         1 MOL     -0.760345
     14 O4          3.7430   -1.0700    1.8910 o         1 MOL     -0.760345
     15 H4          0.4380   -2.4900    5.3650 hn        1 MOL      0.330138
     16 H5         -0.3810   -1.3750    2.7170 h1        1 MOL     -0.030224
     17 H6          2.3760   -1.9680    3.9470 hc        1 MOL      0.087238
     18 H7          1.6630   -0.4190    3.5100 hc        1 MOL      0.087238
     19 N2         -0.3880   -3.5050    1.3160 n         1 MOL     -0.494616
     20 C7         -0.7720   -4.7330    0.6650 c3        1 MOL     -0.064503
     21 C8          0.2620   -5.3550   -0.2890 c         1 MOL      0.444891
     22 O5          0.1920   -6.5650   -0.6130 o         1 MOL     -0.576270
     23 C9         -2.0910   -4.5460   -0.1540 c3        1 MOL      0.047823
     24 C10        -2.7460   -5.9040   -0.5150 c3        1 MOL     -0.291853
     25 C11        -4.1460   -5.5540   -1.0660 c3        1 MOL      0.069796
     26 C12        -4.8250   -6.7680   -1.7180 c3        1 MOL      0.084259
     27 N3         -6.2980   -6.6140   -2.0280 n4        1 MOL     -0.464733
     28 H8         -0.6940   -2.5940    0.9810 hn        1 MOL      0.238865
     29 H9         -1.0230   -5.4290    1.4640 h1        1 MOL      0.123449
     30 H10        -1.9190   -3.8900   -1.0100 hc        1 MOL      0.071721
     31 H11        -2.8220   -4.0110    0.4580 hc        1 MOL      0.071721
     32 H12        -2.8910   -6.4280    0.4320 hc        1 MOL      0.105001
     33 H13        -2.1330   -6.4770   -1.2060 hc        1 MOL      0.105001
     34 H14        -4.0990   -4.9020   -1.9400 hc        1 MOL      0.016515
     35 H15        -4.7490   -5.0780   -0.2950 hc        1 MOL      0.016515
     36 H16        -4.7120   -7.6840   -1.1310 hx        1 MOL      0.067387
     37 H17        -4.2280   -6.8920   -2.6270 hx        1 MOL      0.067387
     38 H18        -6.5070   -7.4630   -2.5460 hn        1 MOL      0.356036
     39 H19        -6.8120   -6.5920   -1.1610 hn        1 MOL      0.356036
     40 H20        -6.5100   -5.7310   -2.4750 hn        1 MOL      0.356036
     41 N4          1.2890   -4.6570   -0.8280 n         1 MOL     -0.213845
     42 C13         2.4710   -5.3040   -1.5290 c3        1 MOL      0.033832
     43 C14         3.7740   -5.0090   -0.8110 c         1 MOL      0.419371
     44 O6          4.7310   -5.6380   -1.1260 o         1 MOL     -0.530971
     45 C15         2.4730   -4.7650   -3.0030 c3        1 MOL     -0.322691
     46 C16         2.6820   -3.2490   -3.1320 c         1 MOL      0.910553
     47 O7          2.6680   -2.7210   -4.2330 o         1 MOL     -0.757725
     48 O8          2.6870   -2.6000   -2.0350 o         1 MOL     -0.757725
     49 H21         1.4410   -3.6830   -0.6040 hn        1 MOL      0.212128
     50 H22         2.3300   -6.3560   -1.7380 h1        1 MOL      0.124112
     51 H23         1.5500   -5.0890   -3.4820 hc        1 MOL      0.075829
     52 H24         3.3410   -5.1920   -3.5030 hc        1 MOL      0.075829
     53 N5          3.8830   -4.1980    0.2270 n         1 MOL     -0.182451
     54 C17         5.0960   -4.0650    1.0490 c3        1 MOL     -0.209031
     55 C18         6.1950   -3.1180    0.5320 c         1 MOL      0.483638
     56 O9          7.3640   -3.2330    0.9290 o         1 MOL     -0.562064
     57 H25         3.1060   -3.6210    0.4980 hn        1 MOL      0.128871
     58 H26         5.6040   -5.0090    1.1960 h1        1 MOL      0.120773
     59 H27         4.7520   -3.7250    2.0250 h1        1 MOL      0.120773
     60 N6          5.8260   -2.2930   -0.4500 n         1 MOL     -0.156749
     61 C19         6.6100   -1.2760   -1.0940 c3        1 MOL     -0.157287
     62 C20         6.9670   -0.0020   -0.2300 c         1 MOL      0.444838
     63 O10         7.6260    0.8730   -0.7250 o         1 MOL     -0.500255
     64 C21         5.8250   -0.8870   -2.3560 c3        1 MOL     -0.039332
     65 C22         4.8260    0.2500   -2.0200 c         1 MOL      0.526249
     66 N7          4.7880    1.2010   -2.8810 n         1 MOL     -0.695148
     67 O11         4.0980    0.1360   -1.0590 o         1 MOL     -0.498967
     68 H28         4.8450   -2.3760   -0.6780 hn        1 MOL      0.194994
     69 H29         7.5380   -1.8030   -1.3480 h1        1 MOL      0.135776
     70 H30         5.2350   -1.7070   -2.7790 hc        1 MOL      0.039157
     71 H31         6.5490   -0.5610   -3.1080 hc        1 MOL      0.039157
     72 H32         5.2850    1.1220   -3.7540 hn        1 MOL      0.342907
     73 H33         3.9720    1.7920   -2.8950 hn        1 MOL      0.342907
     74 N8          6.4140    0.1650    0.9790 n         1 MOL     -0.254584
     75 C23         6.5410    1.4060    1.8080 c3        1 MOL     -0.203173
     76 C24         5.5080    2.5360    1.6930 c         1 MOL      0.592343
     77 O12         5.7250    3.5590    2.3360 o         1 MOL     -0.555546
     78 H34         5.7590   -0.5280    1.2960 hn        1 MOL      0.268309
     79 H35         7.5320    1.8370    1.6770 h1        1 MOL      0.114164
     80 H36         6.5740    1.1260    2.8550 h1        1 MOL      0.114164
     81 N9          4.3640    2.2860    1.0940 n         1 MOL     -0.281567
     82 C25         3.2130    3.1960    0.8770 c3        1 MOL     -0.064178
     83 C26         1.8030    2.5390    0.8810 c         1 MOL      0.696279
     84 O13         1.6550    1.3720    0.5390 o         1 MOL     -0.776443
     85 C27         3.4110    3.7440   -0.4720 c3        1 MOL     -0.220811
     86 C28         4.4150    4.8800   -0.5560 ca        1 MOL      0.028339
     87 C29         5.6540    4.7020   -1.2080 ca        1 MOL     -0.143096
     88 C30         4.0620    6.1780   -0.0230 ca        1 MOL     -0.143096
     89 C31         6.5220    5.8440   -1.4370 ca        1 MOL     -0.262326
     90 C32         4.8960    7.2950   -0.2160 ca        1 MOL     -0.262326
     91 C33         6.1140    7.0640   -0.8970 ca        1 MOL      0.329551
     92 O14         7.0580    7.9900   -1.0670 oh        1 MOL     -0.451183
     93 H37         4.1100    1.3680    0.7440 hn        1 MOL      0.247896
     94 H38         3.3020    4.0300    1.5700 h1        1 MOL      0.089961
     95 H39         2.4640    4.1200   -0.8570 hc        1 MOL      0.083470
     96 H40         3.7030    2.9220   -1.1250 hc        1 MOL      0.083470
     97 H41         6.0210    3.6840   -1.2670 ha        1 MOL      0.139749
     98 H42         3.0830    6.2520    0.4290 ha        1 MOL      0.139749
     99 H43         7.4860    5.8610   -1.9100 ha        1 MOL      0.152618
    100 H44         4.6150    8.2670    0.1520 ha        1 MOL      0.152618
    101 H45         6.7350    8.8210   -0.6960 ho        1 MOL      0.340930
    102 N10         0.8020    3.3170    1.2800 n         1 MOL     -0.497924
    103 C34        -0.6450    3.0010    1.3430 c3        1 MOL      0.104842
    104 C35        -1.5460    3.8740    0.4490 c         1 MOL      0.519411
    105 O15        -1.2660    5.0880    0.2540 o         1 MOL     -0.593448
    106 C36        -1.1030    3.0140    2.8140 c3        1 MOL      0.028306
    107 C37        -0.4090    1.8780    3.5840 c3        1 MOL      0.299080
    108 C38        -2.6050    2.8150    2.9320 c3        1 MOL     -0.333385
    109 C39        -0.6720    1.7940    5.0430 c3        1 MOL     -0.296463
    110 H46         1.1130    4.2170    1.5930 hn        1 MOL      0.279051
    111 H47        -0.8320    1.9740    1.0450 h1        1 MOL      0.069905
    112 H48        -0.8350    3.9670    3.2800 hc        1 MOL      0.011885
    113 H49         0.6610    2.0630    3.4830 hc        1 MOL     -0.031896
    114 H50        -0.6280    0.9100    3.1250 hc        1 MOL     -0.031896
    115 H51        -2.9530    2.7020    3.9610 hc        1 MOL      0.072281
    116 H52        -3.0770    3.7020    2.5110 hc        1 MOL      0.072281
    117 H53        -2.8340    1.8900    2.4180 hc        1 MOL      0.072281
    118 H54         0.0210    1.1130    5.5480 hc        1 MOL      0.059170
    119 H55        -0.5460    2.7660    5.5130 hc        1 MOL      0.059170
    120 H56        -1.6770    1.3940    5.1140 hc        1 MOL      0.059170
    121 N11        -2.5270    3.3420   -0.2610 n         1 MOL     -0.169944
    122 C40        -3.4510    3.9420   -1.2890 c3        1 MOL     -0.049692
    123 C41        -4.9530    3.7570   -0.8560 c         1 MOL      0.439355
    124 O16        -5.1960    3.0830    0.1550 o         1 MOL     -0.367795
    125 C42        -3.2040    3.2050   -2.6150 c3        1 MOL     -0.058597
    126 O17        -3.8870    2.0000   -2.7600 oh        1 MOL     -0.516795
    127 H57        -2.5970    2.3380   -0.1730 hn        1 MOL      0.177093
    128 H58        -3.1530    4.9790   -1.4760 h1        1 MOL      0.102257
    129 H59        -2.1220    3.0860   -2.6810 h1        1 MOL      0.079103
    130 H60        -3.4590    3.8540   -3.4580 h1        1 MOL      0.079103
    131 H61        -3.3530    1.3740   -3.2460 ho        1 MOL      0.393734
    132 N12        -5.9390    4.3100   -1.5920 n         1 MOL     -0.451751
    133 C43        -7.2820    4.1830   -1.2460 c3        1 MOL      0.134519
    134 C44        -7.8370    2.7480   -1.2380 c         1 MOL      0.388630
    135 O18        -8.6210    2.2840   -0.4510 o         1 MOL     -0.477356
    136 C45        -8.1900    5.1720   -1.9960 c3        1 MOL     -0.395674
    137 H62        -5.7410    4.7170   -2.4940 hn        1 MOL      0.321355
    138 H63        -7.4330    4.5350   -0.2240 h1        1 MOL      0.098721
    139 H64        -8.1120    6.2350   -1.7470 hc        1 MOL      0.123993
    140 H65        -7.9850    4.9920   -3.0470 hc        1 MOL      0.123993
    141 H66        -9.2260    5.0080   -1.7050 hc        1 MOL      0.123993
    142 N13        -7.3800    1.9520   -2.2170 n         1 MOL     -0.356302
    143 C46        -7.5880    0.5150   -2.2940 c3        1 MOL      0.086035
    144 C47        -6.9940   -0.2550   -1.1100 c         1 MOL      0.384674
    145 O19        -7.5610   -1.2430   -0.7180 o         1 MOL     -0.521220
    146 C48        -6.8830   -0.0160   -3.5070 c3        1 MOL     -0.446386
    147 H67        -6.6640    2.3320   -2.8180 hn        1 MOL      0.265010
    148 H68        -8.6530    0.3130   -2.3510 h1        1 MOL      0.117537
    149 H69        -6.9600   -1.1040   -3.3890 hc        1 MOL      0.117150
    150 H70        -7.2760    0.2780   -4.4870 hc        1 MOL      0.117150
    151 H71        -5.8740    0.3600   -3.6450 hc        1 MOL      0.117150
    152 N14        -5.9440    0.2860   -0.4720 n         1 MOL      0.092514
    153 C49        -5.3420   -0.3340    0.6840 c3        1 MOL     -0.210452
    154 C50        -6.0930   -0.0400    1.9350 c         1 MOL      0.559031
    155 O20        -6.4210   -0.9410    2.6910 o         1 MOL     -0.557114
    156 C51        -3.8420   -0.0710    0.7680 c3        1 MOL      0.085481
    157 C52        -3.0790   -0.8070   -0.2810 c3        1 MOL      0.376968
    158 C53        -1.6320   -0.3860   -0.3940 c         1 MOL      0.534479
    159 O21        -0.6910   -1.1410   -0.0700 o         1 MOL     -0.633253
    160 O22        -1.3020    0.7170   -0.8480 o         1 MOL     -0.633253
    161 H72        -5.4530    1.1370   -0.7180 hn        1 MOL     -0.009685
    162 H73        -5.3530   -1.4210    0.6330 h1        1 MOL      0.065385
    163 H74        -3.3780   -0.3100    1.7200 hc        1 MOL      0.009881
    164 H75        -3.6730    1.0020    0.6660 hc        1 MOL      0.009881
    165 H76        -3.5590   -0.5990   -1.2380 hc        1 MOL     -0.178923
    166 H77        -3.0840   -1.9010   -0.1830 hc        1 MOL     -0.178923
    167 N15        -6.5030    1.1900    2.1250 n         1 MOL     -0.210140
    168 C54        -7.5670    1.5710    3.1310 c3        1 MOL     -0.308530
    169 H78        -7.6290    0.8030    3.9020 h1        1 MOL      0.129801
    170 H79        -7.3090    2.5250    3.5890 h1        1 MOL      0.129801
    171 H80        -8.5300    1.6570    2.6270 h1        1 MOL      0.129801
    172 H81        -6.1380    1.9090    1.5240 hn        1 MOL      0.160699
    173 Ca1         1.4780   -0.4570   -1.1150 Ca        1 MOL      1.831933
    174 O23         0.0800   -1.9790   -2.9040 oh        1 MOL     -0.876437
    175 H82        -0.0670   -2.8890   -3.1480 ho        1 MOL      0.409324
    176 H83         0.1120   -1.5040   -3.7350 ho        1 MOL      0.409324
    177 O24         0.8730    1.8010   -2.3100 oh        1 MOL     -0.876437
    178 H84        -0.0790    1.7780   -2.3790 ho        1 MOL      0.409324
    179 H85         1.1210    2.5980   -2.7800 ho        1 MOL      0.409324
    180 O25         2.2800   -0.1530   -3.7600 oh        1 MOL     -0.876437
    181 H86         2.7230    0.2650   -4.4940 ho        1 MOL      0.409324
    182 H87         2.3760   -1.0950   -3.9270 ho        1 MOL      0.409324
@<TRIPOS>BOND
     1    1    2 1   
     2    1    4 1   
     3    1    5 1   
     4    1    6 1   
     5    2    3 2   
     6    2    7 1   
     7    7    8 1   
     8    7   15 1   
     9    8    9 1   
    10    8   11 1   
    11    8   16 1   
    12    9   10 2   
    13    9   19 1   
    14   11   12 1   
    15   11   17 1   
    16   11   18 1   
    17   12   13 1   
    18   12   14 1   
    19   19   20 1   
    20   19   28 1   
    21   20   21 1   
    22   20   23 1   
    23   20   29 1   
    24   21   22 2   
    25   21   41 1   
    26   23   24 1   
    27   23   30 1   
    28   23   31 1   
    29   24   25 1   
    30   24   32 1   
    31   24   33 1   
    32   25   26 1   
    33   25   34 1   
    34   25   35 1   
    35   26   27 1   
    36   26   36 1   
    37   26   37 1   
    38   27   38 1   
    39   27   39 1   
    40   27   40 1   
    41   41   42 1   
    42   41   49 1   
    43   42   43 1   
    44   42   45 1   
    45   42   50 1   
    46   43   44 2   
    47   43   53 1   
    48   45   46 1   
    49   45   51 1   
    50   45   52 1   
    51   46   47 1   
    52   46   48 1   
    53   53   54 1   
    54   53   57 1   
    55   54   55 1   
    56   54   58 1   
    57   54   59 1   
    58   55   56 2   
    59   55   60 1   
    60   60   61 1   
    61   60   68 1   
    62   61   62 1   
    63   61   64 1   
    64   61   69 1   
    65   62   63 2   
    66   62   74 1   
    67   64   65 1   
    68   64   70 1   
    69   64   71 1   
    70   65   66 1   
    71   65   67 2   
    72   66   72 1   
    73   66   73 1   
    74   74   75 1   
    75   74   78 1   
    76   75   76 1   
    77   75   79 1   
    78   75   80 1   
    79   76   77 2   
    80   76   81 1   
    81   81   82 1   
    82   81   93 1   
    83   82   83 1   
    84   82   85 1   
    85   82   94 1   
    86   83   84 2   
    87   83  102 1   
    88   85   86 1   
    89   85   95 1   
    90   85   96 1   
    91   86   87 ar  
    92   86   88 ar  
    93   87   89 ar  
    94   87   97 1   
    95   88   90 ar  
    96   88   98 1   
    97   89   91 ar  
    98   89   99 1   
    99   90   91 ar  
   100   90  100 1   
   101   91   92 1   
   102   92  101 1   
   103  102  103 1   
   104  102  110 1   
   105  103  104 1   
   106  103  106 1   
   107  103  111 1   
   108  104  105 2   
   109  104  121 1   
   110  106  107 1   
   111  106  108 1   
   112  106  112 1   
   113  107  109 1   
   114  107  113 1   
   115  107  114 1   
   116  108  115 1   
   117  108  116 1   
   118  108  117 1   
   119  109  118 1   
   120  109  119 1   
   121  109  120 1   
   122  121  122 1   
   123  121  127 1   
   124  122  123 1   
   125  122  125 1   
   126  122  128 1   
   127  123  124 2   
   128  123  132 1   
   129  125  126 1   
   130  125  129 1   
   131  125  130 1   
   132  126  131 1   
   133  132  133 1   
   134  132  137 1   
   135  133  134 1   
   136  133  136 1   
   137  133  138 1   
   138  134  135 2   
   139  134  142 1   
   140  136  139 1   
   141  136  140 1   
   142  136  141 1   
   143  142  143 1   
   144  142  147 1   
   145  143  144 1   
   146  143  146 1   
   147  143  148 1   
   148  144  145 2   
   149  144  152 1   
   150  146  149 1   
   151  146  150 1   
   152  146  151 1   
   153  152  153 1   
   154  152  161 1   
   155  153  154 1   
   156  153  156 1   
   157  153  162 1   
   158  154  155 2   
   159  154  167 1   
   160  156  157 1   
   161  156  163 1   
   162  156  164 1   
   163  157  158 1   
   164  157  165 1   
   165  157  166 1   
   166  158  159 1   
   167  158  160 1   
   168  167  168 1   
   169  167  172 1   
   170  168  169 1   
   171  168  170 1   
   172  168  171 1   
   173  174  175 1   
   174  174  176 1   
   175  177  178 1   
   176  177  179 1   
   177  180  181 1   
   178  180  182 1   
@<TRIPOS>SUBSTRUCTURE
     1 MOL         1 TEMP              0 ****  ****    0 ROOT
