@<TRIPOS>MOLECULE
MOL
  189   185     1     0     0
SMALL
resp


@<TRIPOS>ATOM
      1 C1          0.0190   -2.0960    6.2180 c3        1 MOL     -0.453563
      2 C2          0.6640   -2.1480    4.7930 c         1 MOL      0.707848
      3 O1          0.7670   -1.1260    4.1380 o         1 MOL     -0.587314
      4 H1          0.6190   -1.4550    6.8640 hc        1 MOL      0.121238
      5 H2         -0.9920   -1.6950    6.1460 hc        1 MOL      0.121238
      6 H3         -0.0170   -3.1010    6.6370 hc        1 MOL      0.121238
      7 N1          1.1970   -3.2700    4.3070 n         1 MOL     -0.639483
      8 C3          1.8630   -3.3020    2.9990 c3        1 MOL      0.338866
      9 C4          1.6010   -4.6390    2.2270 c         1 MOL      0.338627
     10 O2          1.5760   -5.7050    2.8770 o         1 MOL     -0.564918
     11 C5          3.3640   -3.0780    3.1770 c3        1 MOL     -0.186601
     12 C6          4.0980   -2.5700    1.9170 c         1 MOL      0.680388
     13 O3          3.4450   -2.4160    0.8120 o         1 MOL     -0.678821
     14 O4          5.3620   -2.3420    1.9100 o         1 MOL     -0.678821
     15 H4          1.0920   -4.0590    4.9210 hn        1 MOL      0.318303
     16 H5          1.4440   -2.5410    2.3320 h1        1 MOL      0.100159
     17 H6          3.7530   -4.0420    3.5100 hc        1 MOL      0.039929
     18 H7          3.6010   -2.3750    3.9750 hc        1 MOL      0.039929
     19 N2          1.5550   -4.5500    0.9300 n         1 MOL     -0.034776
     20 C7          1.6760   -5.7260    0.0450 c3        1 MOL     -0.113193
     21 C8          2.7560   -5.5110   -1.0590 c         1 MOL      0.525049
     22 O5          3.0590   -6.4760   -1.7570 o         1 MOL     -0.583537
     23 C9          0.3510   -6.1540   -0.6110 c3        1 MOL      0.450258
     24 C10        -0.1900   -5.1650   -1.6350 c3        1 MOL     -0.034770
     25 C11        -0.7420   -6.5340    0.2730 c3        1 MOL     -0.295105
     26 C12        -0.8000   -5.8930   -2.8410 c3        1 MOL     -0.291089
     27 H8          1.4800   -3.6890    0.4080 hn        1 MOL     -0.136540
     28 H9          1.9600   -6.6020    0.6260 h1        1 MOL      0.078171
     29 H10         0.6230   -7.0910   -1.1080 hc        1 MOL     -0.093547
     30 H11         0.6160   -4.5830   -2.0890 hc        1 MOL      0.079767
     31 H12        -0.9650   -4.5140   -1.2320 hc        1 MOL      0.079767
     32 H13        -1.1410   -5.6650    0.7890 hc        1 MOL      0.040417
     33 H14        -1.6280   -6.8430   -0.2730 hc        1 MOL      0.040417
     34 H15        -0.4400   -7.2830    1.0050 hc        1 MOL      0.040417
     35 H16        -0.1320   -6.5560   -3.3910 hc        1 MOL      0.061613
     36 H17        -1.6330   -6.5050   -2.4970 hc        1 MOL      0.061613
     37 H18        -1.1570   -5.1790   -3.5870 hc        1 MOL      0.061613
     38 N3          3.4570   -4.3800   -1.2230 n         1 MOL     -0.472707
     39 C13         4.2990   -4.1120   -2.4520 c3        1 MOL     -0.002376
     40 C14         5.5800   -3.2700   -2.2970 c         1 MOL      0.369969
     41 O6          6.4190   -3.0500   -3.2350 o         1 MOL     -0.536557
     42 C15         3.4520   -3.5710   -3.6580 c3        1 MOL     -0.269088
     43 C16         2.6790   -2.3370   -3.2360 c         1 MOL      0.833354
     44 O7          2.9610   -1.6370   -2.2070 o         1 MOL     -0.712144
     45 O8          1.7230   -2.0020   -3.9690 o         1 MOL     -0.712144
     46 H19         3.2600   -3.6060   -0.6070 hn        1 MOL      0.362611
     47 H20         4.5610   -5.1300   -2.7420 h1        1 MOL      0.120433
     48 H21         2.7210   -4.3440   -3.9020 hc        1 MOL      0.080737
     49 H22         4.0280   -3.3790   -4.5670 hc        1 MOL      0.080737
     50 N4          5.8860   -2.8040   -1.0290 n         1 MOL     -0.127978
     51 C17         7.1940   -2.2730   -0.6790 c3        1 MOL     -0.382617
     52 C18         7.5420   -0.8190   -1.1530 c         1 MOL      0.553536
     53 O9          8.6180   -0.2600   -0.8750 o         1 MOL     -0.633480
     54 H23         5.2690   -2.9380   -0.2470 hn        1 MOL      0.188742
     55 H24         7.8830   -3.0180   -1.0820 h1        1 MOL      0.151391
     56 H25         7.3420   -2.2820    0.3990 h1        1 MOL      0.151391
     57 N5          6.6350   -0.1120   -1.8140 n         1 MOL     -0.102934
     58 C19         6.8130    1.0800   -2.5710 c3        1 MOL     -0.156529
     59 C20         6.9610    2.3570   -1.7270 c         1 MOL      0.517802
     60 O10         7.2090    3.4150   -2.2800 o         1 MOL     -0.566511
     61 C21         5.6490    1.2610   -3.5650 c3        1 MOL     -0.082611
     62 C22         4.1940    1.4440   -3.0410 c         1 MOL      0.633016
     63 O11         3.8720    1.1510   -1.8420 o         1 MOL     -0.659978
     64 O12         3.2730    1.7460   -3.8520 o         1 MOL     -0.659978
     65 H26         5.6560   -0.3770   -1.8190 hn        1 MOL      0.147449
     66 H27         7.8070    1.0140   -3.0190 h1        1 MOL      0.101629
     67 H28         5.6210    0.4430   -4.2740 hc        1 MOL      0.039019
     68 H29         5.8910    2.0740   -4.2440 hc        1 MOL      0.039019
     69 N6          6.8060    2.3080   -0.3890 n         1 MOL     -0.175008
     70 C23         7.2170    3.3940    0.5020 c3        1 MOL     -0.153400
     71 C24         5.9510    4.2350    1.0420 c         1 MOL      0.490689
     72 O13         6.1670    5.3320    1.5530 o         1 MOL     -0.556010
     73 H30         6.5570    1.4600    0.1040 hn        1 MOL      0.218172
     74 H31         7.8580    4.0570   -0.0740 h1        1 MOL      0.082794
     75 H32         7.8710    3.0470    1.2990 h1        1 MOL      0.082794
     76 N7          4.7380    3.7250    0.7580 n         1 MOL     -0.346240
     77 C25         3.4820    4.3360    1.0950 c3        1 MOL     -0.053971
     78 C26         2.3730    3.3120    1.2370 c         1 MOL      0.731132
     79 O14         2.2920    2.4390    0.4290 o         1 MOL     -0.660522
     80 C27         3.0070    5.3690    0.0510 c3        1 MOL     -0.088175
     81 C28         3.9080    6.6120    0.0780 c3        1 MOL     -0.189795
     82 C29         3.3790    7.5880   -0.8990 c         1 MOL      0.587549
     83 N8          3.7300    7.3730   -2.1600 n         1 MOL     -0.805547
     84 O15         2.6550    8.5430   -0.5690 o         1 MOL     -0.581246
     85 H33         4.7150    2.9110    0.1570 hn        1 MOL      0.223278
     86 H34         3.7270    4.8000    2.0430 h1        1 MOL      0.068101
     87 H35         2.0010    5.7440    0.2560 hc        1 MOL      0.103345
     88 H36         2.9870    4.9210   -0.9460 hc        1 MOL      0.103345
     89 H37         4.8980    6.3590   -0.2770 hc        1 MOL      0.092901
     90 H38         3.9640    7.1550    1.0230 hc        1 MOL      0.092901
     91 H39         4.2080    6.5160   -2.3960 hn        1 MOL      0.373645
     92 H40         3.5380    8.1420   -2.7740 hn        1 MOL      0.373645
     93 N9          1.5050    3.5160    2.2220 n         1 MOL     -0.798839
     94 C30         0.2500    2.6630    2.3530 c3        1 MOL      0.351786
     95 C31        -0.7970    3.1410    1.3550 c         1 MOL      0.569130
     96 O16        -1.0890    4.3100    1.2460 o         1 MOL     -0.629982
     97 C32        -0.1730    2.6550    3.8790 c3        1 MOL      0.238954
     98 C33        -0.4750    4.0690    4.3460 c3        1 MOL     -0.280989
     99 C34        -1.4430    1.8200    4.1790 c3        1 MOL     -0.280989
    100 H41         1.6080    4.2820    2.8690 hn        1 MOL      0.353783
    101 H42         0.5310    1.6630    2.0070 h1        1 MOL     -0.039743
    102 H43         0.6810    2.2530    4.4260 hc        1 MOL     -0.033156
    103 H44        -1.2480    4.5580    3.7540 hc        1 MOL      0.050111
    104 H45        -0.7750    4.1250    5.3910 hc        1 MOL      0.050111
    105 H46         0.4360    4.6350    4.1490 hc        1 MOL      0.050111
    106 H47        -1.5990    1.8420    5.2590 hc        1 MOL      0.050111
    107 H48        -2.2350    2.3070    3.6130 hc        1 MOL      0.050111
    108 H49        -1.4210    0.7890    3.8340 hc        1 MOL      0.050111
    109 N10        -1.4490    2.2170    0.7480 n         1 MOL     -0.145208
    110 C35        -2.7010    2.5310   -0.0860 c3        1 MOL      0.119411
    111 C36        -3.9600    2.2630    0.6820 c         1 MOL      0.171499
    112 O17        -3.9830    1.4510    1.6220 o         1 MOL     -0.256673
    113 C37        -2.5740    1.6380   -1.2950 c3        1 MOL     -0.292318
    114 C38        -3.7880    1.7250   -2.1890 c         1 MOL      0.810185
    115 N11        -4.0430    2.8170   -2.8400 n         1 MOL     -0.783249
    116 O18        -4.5390    0.8080   -2.3030 o         1 MOL     -0.565679
    117 H50        -1.1830    1.2450    0.7430 hn        1 MOL     -0.002195
    118 H51        -2.6620    3.5640   -0.4360 h1        1 MOL      0.050877
    119 H52        -2.3030    0.6180   -1.0140 hc        1 MOL      0.128286
    120 H53        -1.7510    1.9870   -1.9070 hc        1 MOL      0.128286
    121 H54        -3.5860    3.7050   -2.7390 hn        1 MOL      0.348394
    122 H55        -4.8480    2.8090   -3.4540 hn        1 MOL      0.348394
    123 N12        -5.0910    2.7580    0.2510 n         1 MOL     -0.207202
    124 C39        -6.3940    2.5060    0.8950 c3        1 MOL      0.099859
    125 C40        -6.7550    1.0020    0.9030 c         1 MOL      0.377350
    126 O19        -7.2500    0.5210    1.9140 o         1 MOL     -0.572005
    127 C41        -7.4130    3.4530    0.2170 c3        1 MOL     -0.135878
    128 C42        -7.8670    2.9640   -1.2050 ca        1 MOL      0.046075
    129 C43        -8.9030    2.0200   -1.2370 ca        1 MOL     -0.178926
    130 C44        -7.2690    3.3330   -2.4050 ca        1 MOL     -0.178926
    131 C45        -9.2530    1.4270   -2.4380 ca        1 MOL     -0.313273
    132 C46        -7.6520    2.7350   -3.6690 ca        1 MOL     -0.313273
    133 C47        -8.6340    1.8010   -3.6420 ca        1 MOL      0.419382
    134 O20        -9.0810    1.2420   -4.7980 oh        1 MOL     -0.527196
    135 H56        -5.0180    3.0950   -0.6990 hn        1 MOL      0.118475
    136 H57        -6.2720    2.8960    1.9000 h1        1 MOL      0.069272
    137 H58        -6.8870    4.3990    0.0660 hc        1 MOL      0.043307
    138 H59        -8.3020    3.5860    0.8360 hc        1 MOL      0.043307
    139 H60        -9.4280    1.7900   -0.3160 ha        1 MOL      0.137896
    140 H61        -6.4830    4.0830   -2.3800 ha        1 MOL      0.137896
    141 H62       -10.0110    0.6640   -2.3780 ha        1 MOL      0.173477
    142 H63        -7.1210    2.9890   -4.5770 ha        1 MOL      0.173477
    143 H64        -9.7140    0.5320   -4.6270 ho        1 MOL      0.399661
    144 N13        -6.3470    0.2030   -0.0780 n         1 MOL      0.077871
    145 C48        -6.6020   -1.2990    0.1580 c3        1 MOL     -0.126512
    146 C49        -5.6270   -1.8570    1.2290 c         1 MOL      0.336038
    147 O21        -5.9360   -2.7260    2.0090 o         1 MOL     -0.513002
    148 C50        -6.5520   -2.1370   -1.1270 c3        1 MOL     -0.071676
    149 C51        -7.5520   -1.6320   -2.2410 c3        1 MOL     -0.353049
    150 C52        -7.7260   -2.4530   -3.5370 c         1 MOL      0.757208
    151 O22        -8.7510   -3.1720   -3.7790 o         1 MOL     -0.748895
    152 O23        -6.7970   -2.3760   -4.3830 o         1 MOL     -0.748895
    153 H65        -5.8940    0.5630   -0.8990 hn        1 MOL      0.141561
    154 H66        -7.6070   -1.4920    0.5390 h1        1 MOL      0.122274
    155 H67        -6.8210   -3.1460   -0.8110 hc        1 MOL      0.090261
    156 H68        -5.5500   -2.1360   -1.5500 hc        1 MOL      0.090261
    157 H69        -7.2100   -0.6480   -2.5630 hc        1 MOL      0.063734
    158 H70        -8.4660   -1.2290   -1.8200 hc        1 MOL      0.063734
    159 N14        -4.3930   -1.3380    1.4590 n         1 MOL     -0.146013
    160 C53        -3.4780   -1.9380    2.4730 c3        1 MOL      0.008573
    161 C54        -3.8470   -1.3420    3.8360 c         1 MOL      0.410537
    162 O24        -3.6060   -2.0510    4.8500 o         1 MOL     -0.614140
    163 C55        -2.1220   -1.4090    2.1260 c3        1 MOL      0.080423
    164 C56        -1.5810   -1.9670    0.7310 c3        1 MOL     -0.247870
    165 C57        -0.3520   -1.3060    0.2720 c         1 MOL      0.861096
    166 O25        -0.0810   -0.1240    0.5190 o         1 MOL     -0.730367
    167 O26         0.5260   -1.9950   -0.3050 o         1 MOL     -0.730367
    168 H71        -4.0510   -0.5040    1.0050 hn        1 MOL      0.024272
    169 H72        -3.4640   -3.0270    2.4260 h1        1 MOL      0.106058
    170 H73        -1.4640   -1.7750    2.9250 hc        1 MOL      0.006858
    171 H74        -2.1100   -0.3170    2.1400 hc        1 MOL      0.006858
    172 H75        -2.3220   -1.7520   -0.0410 hc        1 MOL      0.059107
    173 H76        -1.4740   -3.0570    0.7580 hc        1 MOL      0.059107
    174 N15        -4.4290   -0.1610    3.9640 n         1 MOL      0.077567
    175 C58        -5.0520    0.3580    5.1890 c3        1 MOL     -0.174259
    176 H77        -4.3180    0.9330    5.7540 h1        1 MOL      0.066211
    177 H78        -5.8930    1.0010    4.9260 h1        1 MOL      0.066211
    178 H79        -5.4070   -0.4740    5.7970 h1        1 MOL      0.066211
    179 H80        -4.4830    0.3630    3.0990 hn        1 MOL      0.020984
    180 Ca1         2.4080   -0.1110   -0.1440 Ca        1 MOL      1.725616
    181 O27         2.4790    0.0450    2.6060 oh        1 MOL     -0.886564
    182 H81         2.9350    0.5370    3.2860 ho        1 MOL      0.411725
    183 H82         1.7310   -0.3580    3.0560 ho        1 MOL      0.411725
    184 O28         5.0380    0.2260    0.8690 oh        1 MOL     -0.886564
    185 H83         5.2150    0.7280    1.6650 ho        1 MOL      0.411725
    186 H84         5.0850   -0.6930    1.1380 ho        1 MOL      0.411725
    187 O29         1.1410    0.5260   -2.6260 oh        1 MOL     -0.886564
    188 H85         1.3680   -0.3940   -2.8070 ho        1 MOL      0.411725
    189 H86         1.8480    1.0290   -3.0260 ho        1 MOL      0.411725
@<TRIPOS>BOND
     1    1    2 1   
     2    1    4 1   
     3    1    5 1   
     4    1    6 1   
     5    2    3 2   
     6    2    7 1   
     7    7    8 1   
     8    7   15 1   
     9    8    9 1   
    10    8   11 1   
    11    8   16 1   
    12    9   10 2   
    13    9   19 1   
    14   11   12 1   
    15   11   17 1   
    16   11   18 1   
    17   12   13 1   
    18   12   14 1   
    19   19   20 1   
    20   19   27 1   
    21   20   21 1   
    22   20   23 1   
    23   20   28 1   
    24   21   22 2   
    25   21   38 1   
    26   23   24 1   
    27   23   25 1   
    28   23   29 1   
    29   24   26 1   
    30   24   30 1   
    31   24   31 1   
    32   25   32 1   
    33   25   33 1   
    34   25   34 1   
    35   26   35 1   
    36   26   36 1   
    37   26   37 1   
    38   38   39 1   
    39   38   46 1   
    40   39   40 1   
    41   39   42 1   
    42   39   47 1   
    43   40   41 2   
    44   40   50 1   
    45   42   43 1   
    46   42   48 1   
    47   42   49 1   
    48   43   44 1   
    49   43   45 1   
    50   50   51 1   
    51   50   54 1   
    52   51   52 1   
    53   51   55 1   
    54   51   56 1   
    55   52   53 2   
    56   52   57 1   
    57   57   58 1   
    58   57   65 1   
    59   58   59 1   
    60   58   61 1   
    61   58   66 1   
    62   59   60 2   
    63   59   69 1   
    64   61   62 1   
    65   61   67 1   
    66   61   68 1   
    67   62   63 1   
    68   62   64 1   
    69   69   70 1   
    70   69   73 1   
    71   70   71 1   
    72   70   74 1   
    73   70   75 1   
    74   71   72 2   
    75   71   76 1   
    76   76   77 1   
    77   76   85 1   
    78   77   78 1   
    79   77   80 1   
    80   77   86 1   
    81   78   79 2   
    82   78   93 1   
    83   80   81 1   
    84   80   87 1   
    85   80   88 1   
    86   81   82 1   
    87   81   89 1   
    88   81   90 1   
    89   82   83 1   
    90   82   84 2   
    91   83   91 1   
    92   83   92 1   
    93   93   94 1   
    94   93  100 1   
    95   94   95 1   
    96   94   97 1   
    97   94  101 1   
    98   95   96 2   
    99   95  109 1   
   100   97   98 1   
   101   97   99 1   
   102   97  102 1   
   103   98  103 1   
   104   98  104 1   
   105   98  105 1   
   106   99  106 1   
   107   99  107 1   
   108   99  108 1   
   109  109  110 1   
   110  109  117 1   
   111  110  111 1   
   112  110  113 1   
   113  110  118 1   
   114  111  112 2   
   115  111  123 1   
   116  113  114 1   
   117  113  119 1   
   118  113  120 1   
   119  114  115 1   
   120  114  116 2   
   121  115  121 1   
   122  115  122 1   
   123  123  124 1   
   124  123  135 1   
   125  124  125 1   
   126  124  127 1   
   127  124  136 1   
   128  125  126 2   
   129  125  144 1   
   130  127  128 1   
   131  127  137 1   
   132  127  138 1   
   133  128  129 ar  
   134  128  130 ar  
   135  129  131 ar  
   136  129  139 1   
   137  130  132 ar  
   138  130  140 1   
   139  131  133 ar  
   140  131  141 1   
   141  132  133 ar  
   142  132  142 1   
   143  133  134 1   
   144  134  143 1   
   145  144  145 1   
   146  144  153 1   
   147  145  146 1   
   148  145  148 1   
   149  145  154 1   
   150  146  147 2   
   151  146  159 1   
   152  148  149 1   
   153  148  155 1   
   154  148  156 1   
   155  149  150 1   
   156  149  157 1   
   157  149  158 1   
   158  150  151 1   
   159  150  152 1   
   160  159  160 1   
   161  159  168 1   
   162  160  161 1   
   163  160  163 1   
   164  160  169 1   
   165  161  162 2   
   166  161  174 1   
   167  163  164 1   
   168  163  170 1   
   169  163  171 1   
   170  164  165 1   
   171  164  172 1   
   172  164  173 1   
   173  165  166 1   
   174  165  167 1   
   175  174  175 1   
   176  174  179 1   
   177  175  176 1   
   178  175  177 1   
   179  175  178 1   
   180  181  182 1   
   181  181  183 1   
   182  184  185 1   
   183  184  186 1   
   184  187  188 1   
   185  187  189 1   
@<TRIPOS>SUBSTRUCTURE
     1 MOL         1 TEMP              0 ****  ****    0 ROOT
