@<TRIPOS>MOLECULE
MOL
  183   181     1     0     0
SMALL
resp


@<TRIPOS>ATOM
      1 C1         -0.4860    1.7380    6.1570 c3        1 MOL     -0.352173
      2 C2         -0.9440    1.8070    4.6330 c         1 MOL      0.730877
      3 O1         -0.1440    2.1320    3.7800 o         1 MOL     -0.567394
      4 H1         -0.7130    2.6850    6.6470 hc        1 MOL      0.082199
      5 H2         -1.0190    0.9320    6.6610 hc        1 MOL      0.082199
      6 H3          0.5870    1.5530    6.2070 hc        1 MOL      0.082199
      7 N1         -2.1510    1.3070    4.3140 n         1 MOL     -0.645554
      8 C3         -2.8160    1.3000    3.0390 c3        1 MOL      0.117254
      9 C4         -3.2610    2.6730    2.5770 c         1 MOL      0.571590
     10 O2         -4.1810    3.2280    3.1650 o         1 MOL     -0.602800
     11 C5         -3.9630    0.3010    3.0430 c3        1 MOL     -0.057272
     12 C6         -4.6010    0.0960    1.7170 c         1 MOL      0.668997
     13 O3         -5.7700   -0.3680    1.7460 o         1 MOL     -0.681988
     14 O4         -3.9480    0.4670    0.7250 o         1 MOL     -0.681988
     15 H4         -2.6180    1.0690    5.1790 hn        1 MOL      0.314142
     16 H5         -2.0490    1.0420    2.2980 h1        1 MOL      0.051186
     17 H6         -4.6270    0.5320    3.8700 hc        1 MOL      0.011678
     18 H7         -3.5580   -0.6780    3.3310 hc        1 MOL      0.011678
     19 N2         -2.6850    3.2050    1.5040 n         1 MOL     -0.232581
     20 C7         -2.9410    4.5270    1.0430 c3        1 MOL     -0.088897
     21 C8         -4.0290    4.6940   -0.0390 c         1 MOL      0.657252
     22 O5         -4.4020    5.8240   -0.4150 o         1 MOL     -0.583119
     23 C9         -1.6090    5.1010    0.6240 c3        1 MOL      0.173258
     24 C10        -0.6510    5.4760    1.8450 c3        1 MOL      0.168702
     25 C11        -1.5610    6.3530   -0.2100 c3        1 MOL     -0.342659
     26 C12         0.8280    5.5480    1.5970 c3        1 MOL     -0.233591
     27 H8         -2.1210    2.6130    0.9280 hn        1 MOL      0.157394
     28 H9         -3.2370    5.1800    1.8570 h1        1 MOL      0.049637
     29 H10        -1.1110    4.3910   -0.0260 hc        1 MOL      0.058455
     30 H11        -0.8150    4.8180    2.7010 hc        1 MOL     -0.047944
     31 H12        -0.9760    6.4360    2.2320 hc        1 MOL     -0.047944
     32 H13        -0.5480    6.6860   -0.4450 hc        1 MOL      0.065426
     33 H14        -2.0820    6.1100   -1.1330 hc        1 MOL      0.065426
     34 H15        -1.9990    7.1900    0.3430 hc        1 MOL      0.065426
     35 H16         1.1210    4.5710    1.2280 hc        1 MOL      0.052085
     36 H17         1.0790    6.4080    0.9770 hc        1 MOL      0.052085
     37 H18         1.3250    5.8300    2.5250 hc        1 MOL      0.052085
     38 N3         -4.7100    3.6290   -0.5050 n         1 MOL     -0.586369
     39 C13        -5.7060    3.6970   -1.6340 c3        1 MOL      0.080025
     40 C14        -6.8410    2.6360   -1.3530 c         1 MOL      0.464931
     41 O6         -7.6630    2.3340   -2.2280 o         1 MOL     -0.528022
     42 C15        -5.0340    3.4880   -2.9950 c3        1 MOL     -0.105504
     43 C16        -3.9870    2.4310   -3.2650 c         1 MOL      0.789790
     44 O7         -3.4120    2.4540   -4.3300 o         1 MOL     -0.703687
     45 O8         -3.8860    1.4560   -2.5410 o         1 MOL     -0.703687
     46 H19        -4.3020    2.7360   -0.2710 hn        1 MOL      0.255875
     47 H20        -6.1740    4.6810   -1.6370 h1        1 MOL      0.095051
     48 H21        -4.5470    4.4520   -3.1460 hc        1 MOL      0.014788
     49 H22        -5.7800    3.4810   -3.7910 hc        1 MOL      0.014788
     50 N4         -6.9060    2.1380   -0.0790 n         1 MOL     -0.420264
     51 C17        -8.0260    1.3210    0.3340 c3        1 MOL     -0.090550
     52 C18        -8.2090   -0.1190   -0.2640 c         1 MOL      0.476665
     53 O9         -9.3480   -0.6090   -0.1680 o         1 MOL     -0.597082
     54 H23        -6.0700    2.2290    0.4820 hn        1 MOL      0.296695
     55 H24        -8.9640    1.8550    0.1750 h1        1 MOL      0.088836
     56 H25        -7.9990    1.1920    1.4130 h1        1 MOL      0.088836
     57 N5         -7.2040   -0.6520   -0.9810 n         1 MOL     -0.204582
     58 C19        -7.3840   -2.1120   -1.3680 c3        1 MOL     -0.034828
     59 C20        -7.0930   -3.1890   -0.2650 c         1 MOL      0.410896
     60 O10        -7.4720   -4.3440   -0.5160 o         1 MOL     -0.563948
     61 C21        -6.3490   -2.3760   -2.4630 c3        1 MOL     -0.221595
     62 C22        -4.9510   -1.9510   -2.1360 c         1 MOL      0.716437
     63 O11        -4.1890   -1.5890   -3.0760 o         1 MOL     -0.704402
     64 O12        -4.5090   -1.9940   -0.9860 o         1 MOL     -0.704402
     65 H26        -6.3120   -0.1990   -0.9620 hn        1 MOL      0.225470
     66 H27        -8.4100   -2.2100   -1.7100 h1        1 MOL      0.121617
     67 H28        -6.7850   -1.9230   -3.3500 hc        1 MOL      0.060186
     68 H29        -6.3200   -3.4480   -2.6360 hc        1 MOL      0.060186
     69 N6         -6.6390   -2.8370    0.9360 n         1 MOL     -0.217531
     70 C23        -6.2370   -3.7710    1.9730 c3        1 MOL     -0.051219
     71 C24        -4.8800   -4.4270    1.7420 c         1 MOL      0.551650
     72 O13        -4.5910   -5.3730    2.4370 o         1 MOL     -0.622034
     73 H30        -6.4570   -1.8650    1.1140 hn        1 MOL      0.238593
     74 H31        -6.9270   -4.5930    2.1620 h1        1 MOL      0.050816
     75 H32        -6.2420   -3.1950    2.9050 h1        1 MOL      0.050816
     76 N7         -3.9960   -3.9930    0.8570 n         1 MOL     -0.245026
     77 C25        -2.6240   -4.4460    0.7080 c3        1 MOL     -0.058010
     78 C26        -1.6640   -3.2580    0.8390 c         1 MOL      0.526329
     79 O14        -1.8590   -2.1650    0.4580 o         1 MOL     -0.606838
     80 C27        -2.4710   -5.3620   -0.4600 c3        1 MOL      0.018702
     81 C28        -2.6640   -4.8190   -1.8570 c3        1 MOL     -0.178128
     82 C29        -1.5470   -3.9290   -2.4570 c         1 MOL      0.536375
     83 N8         -0.4590   -4.5550   -2.9380 n         1 MOL     -0.702550
     84 O15        -1.5220   -2.6880   -2.3110 o         1 MOL     -0.527962
     85 H33        -4.2720   -3.1640    0.3570 hn        1 MOL      0.228007
     86 H34        -2.3640   -5.1610    1.4970 h1        1 MOL      0.054878
     87 H35        -3.2720   -6.0940   -0.3240 hc        1 MOL      0.018479
     88 H36        -1.5370   -5.9130   -0.3580 hc        1 MOL      0.018479
     89 H37        -3.6200   -4.3090   -1.9220 hc        1 MOL      0.073497
     90 H38        -2.7810   -5.6960   -2.4910 hc        1 MOL      0.073497
     91 H39        -0.4130   -5.5350   -3.1780 hn        1 MOL      0.329746
     92 H40         0.2460   -4.0010   -3.3870 hn        1 MOL      0.329746
     93 N9         -0.5570   -3.5270    1.4550 n         1 MOL     -0.320406
     94 C30         0.6060   -2.5630    1.6090 c3        1 MOL      0.030617
     95 C31         1.8090   -3.0110    0.7890 c         1 MOL      0.267354
     96 O16         2.4510   -4.0660    1.0900 o         1 MOL     -0.560319
     97 C32         0.9700   -2.5390    3.1140 c3        1 MOL      0.252383
     98 C33         2.1840   -1.6410    3.5560 c3        1 MOL     -0.323657
     99 C34        -0.2890   -2.1450    3.9730 c3        1 MOL     -0.323657
    100 H41        -0.5890   -4.3840    1.9930 hn        1 MOL      0.244652
    101 H42         0.4000   -1.5450    1.2620 h1        1 MOL      0.144187
    102 H43         1.1350   -3.5940    3.3400 hc        1 MOL     -0.034216
    103 H44         2.5690   -1.9870    4.5210 hc        1 MOL      0.067615
    104 H45         3.0240   -1.6760    2.8610 hc        1 MOL      0.067615
    105 H46         1.7660   -0.6410    3.6140 hc        1 MOL      0.067615
    106 H47        -1.0300   -2.9340    3.8900 hc        1 MOL      0.067615
    107 H48         0.0150   -2.2860    5.0110 hc        1 MOL      0.067615
    108 H49        -0.6710   -1.1400    3.7820 hc        1 MOL      0.067615
    109 N10         2.1240   -2.2880   -0.2440 n         1 MOL     -0.092631
    110 C35         3.3410   -2.4000   -1.0500 c3        1 MOL      0.012361
    111 C36         4.5390   -1.9090   -0.1950 c         1 MOL      0.309425
    112 O17         4.3520   -1.1250    0.7310 o         1 MOL     -0.171362
    113 C37         3.1490   -1.5610   -2.3260 c3        1 MOL     -0.489934
    114 C38         2.0620   -2.1500   -3.2840 c         1 MOL      0.684603
    115 N11         0.8870   -1.5220   -3.2490 n         1 MOL     -0.739757
    116 O18         2.2650   -3.0880   -4.1020 o         1 MOL     -0.611373
    117 H50         1.5770   -1.4410   -0.2810 hn        1 MOL      0.229091
    118 H51         3.5320   -3.4340   -1.3060 h1        1 MOL      0.089488
    119 H52         4.0780   -1.5400   -2.8850 hc        1 MOL      0.161210
    120 H53         2.8560   -0.5600   -1.9940 hc        1 MOL      0.161210
    121 H54         0.6410   -0.9510   -2.4590 hn        1 MOL      0.368050
    122 H55         0.1840   -1.7600   -3.9390 hn        1 MOL      0.368050
    123 N12         5.7520   -2.2420   -0.7120 n         1 MOL     -0.451740
    124 C39         7.0090   -1.7060   -0.2020 c3        1 MOL      0.200537
    125 C40         7.0300   -0.1840   -0.0990 c         1 MOL      0.516424
    126 O19         7.3770    0.3540    0.9540 o         1 MOL     -0.541945
    127 C41         8.0670   -2.2220   -1.1450 c3        1 MOL     -0.203732
    128 C42         9.4340   -1.9500   -0.6540 ca        1 MOL      0.011392
    129 C43         9.8520   -2.6840    0.5130 ca        1 MOL     -0.155049
    130 C44        10.2620   -1.0440   -1.3010 ca        1 MOL     -0.155049
    131 C45        11.1710   -2.4640    0.9760 ca        1 MOL     -0.254651
    132 C46        11.5670   -0.8400   -0.8440 ca        1 MOL     -0.254651
    133 C47        12.0960   -1.5410    0.2880 ca        1 MOL      0.351414
    134 O20        13.3370   -1.4250    0.6410 oh        1 MOL     -0.514520
    135 H56         5.7970   -2.9150   -1.4550 hn        1 MOL      0.287421
    136 H57         7.2240   -2.0600    0.8060 h1        1 MOL      0.045228
    137 H58         8.0420   -1.7550   -2.1300 hc        1 MOL      0.070390
    138 H59         7.8960   -3.2980   -1.2150 hc        1 MOL      0.070390
    139 H60         9.1470   -3.2940    1.0460 ha        1 MOL      0.150719
    140 H61         9.8950   -0.5310   -2.1800 ha        1 MOL      0.150719
    141 H62        11.6210   -3.0530    1.7620 ha        1 MOL      0.127333
    142 H63        12.2470   -0.1570   -1.3280 ha        1 MOL      0.127333
    143 H64        13.8150   -0.6250    0.3970 ho        1 MOL      0.396438
    144 N13         6.5740    0.5480   -1.0630 n         1 MOL     -0.315881
    145 C48         6.4150    1.9990   -0.9990 c3        1 MOL     -0.074903
    146 C49         5.5290    2.5380    0.1230 c         1 MOL      0.385669
    147 O21         5.9060    3.3650    0.8680 o         1 MOL     -0.467863
    148 C50         5.8980    2.3920   -2.4110 c3        1 MOL      0.084453
    149 C51         5.6980    3.8830   -2.4530 c3        1 MOL     -0.099469
    150 C52         5.4470    4.3550   -3.8960 c         1 MOL      0.632239
    151 O22         4.2350    4.4480   -4.3000 o         1 MOL     -0.719879
    152 O23         6.4310    4.4890   -4.6860 o         1 MOL     -0.719879
    153 H65         6.3810    0.0980   -1.9430 hn        1 MOL      0.190596
    154 H66         7.4050    2.4210   -0.8410 h1        1 MOL      0.103440
    155 H67         5.0010    1.8270   -2.6790 hc        1 MOL     -0.008606
    156 H68         6.7330    2.1730   -3.0780 hc        1 MOL     -0.008606
    157 H69         6.6080    4.3870   -2.1340 hc        1 MOL     -0.005749
    158 H70         4.7610    4.0510   -1.9180 hc        1 MOL     -0.005749
    159 N14         4.3160    1.9150    0.2390 n         1 MOL     -0.226487
    160 C53         3.3770    2.0740    1.4110 c3        1 MOL     -0.070144
    161 C54         4.0810    1.6690    2.6840 c         1 MOL      0.423103
    162 O24         3.8940    2.3200    3.6770 o         1 MOL     -0.567533
    163 C55         2.1420    1.2190    1.1480 c3        1 MOL     -0.215055
    164 C56         1.3270    1.6900   -0.1110 c3        1 MOL     -0.068631
    165 C57         0.0970    0.8620   -0.3270 c         1 MOL      0.709182
    166 O25        -0.9900    1.4130   -0.0890 o         1 MOL     -0.750625
    167 O26         0.2010   -0.2830   -0.8610 o         1 MOL     -0.750625
    168 H71         4.1540    1.1020   -0.3270 hn        1 MOL      0.196445
    169 H72         3.0680    3.1070    1.5250 h1        1 MOL      0.141867
    170 H73         1.4840    1.1320    2.0210 hc        1 MOL      0.144674
    171 H74         2.4810    0.2180    0.8810 hc        1 MOL      0.144674
    172 H75         1.8840    1.6220   -1.0490 hc        1 MOL      0.028785
    173 H76         1.0610    2.7420   -0.1730 hc        1 MOL      0.028785
    174 N15         4.9360    0.6160    2.7420 n         1 MOL      0.094985
    175 C58         5.5730    0.0840    3.9510 c3        1 MOL     -0.294760
    176 H77         5.3530    0.7380    4.7950 h1        1 MOL      0.089912
    177 H78         5.1860   -0.9140    4.1560 h1        1 MOL      0.089912
    178 H79         6.6520    0.0330    3.8020 h1        1 MOL      0.089912
    179 H80         4.9460    0.1100    1.8600 hn        1 MOL     -0.057398
    180 Ca1        -2.4430   -0.3920   -1.2490 Ca        1 MOL      1.722186
    181 O27        -1.4990    0.5580   -3.5570 oh        1 MOL     -0.826859
    182 H81        -2.0570    1.3010   -3.7860 ho        1 MOL      0.380321
    183 H82        -0.6800    0.7200   -4.0110 ho        1 MOL      0.380321
@<TRIPOS>BOND
     1    1    2 1   
     2    1    4 1   
     3    1    5 1   
     4    1    6 1   
     5    2    3 2   
     6    2    7 1   
     7    7    8 1   
     8    7   15 1   
     9    8    9 1   
    10    8   11 1   
    11    8   16 1   
    12    9   10 2   
    13    9   19 1   
    14   11   12 1   
    15   11   17 1   
    16   11   18 1   
    17   12   13 1   
    18   12   14 1   
    19   19   20 1   
    20   19   27 1   
    21   20   21 1   
    22   20   23 1   
    23   20   28 1   
    24   21   22 2   
    25   21   38 1   
    26   23   24 1   
    27   23   25 1   
    28   23   29 1   
    29   24   26 1   
    30   24   30 1   
    31   24   31 1   
    32   25   32 1   
    33   25   33 1   
    34   25   34 1   
    35   26   35 1   
    36   26   36 1   
    37   26   37 1   
    38   38   39 1   
    39   38   46 1   
    40   39   40 1   
    41   39   42 1   
    42   39   47 1   
    43   40   41 2   
    44   40   50 1   
    45   42   43 1   
    46   42   48 1   
    47   42   49 1   
    48   43   44 1   
    49   43   45 1   
    50   50   51 1   
    51   50   54 1   
    52   51   52 1   
    53   51   55 1   
    54   51   56 1   
    55   52   53 2   
    56   52   57 1   
    57   57   58 1   
    58   57   65 1   
    59   58   59 1   
    60   58   61 1   
    61   58   66 1   
    62   59   60 2   
    63   59   69 1   
    64   61   62 1   
    65   61   67 1   
    66   61   68 1   
    67   62   63 1   
    68   62   64 1   
    69   69   70 1   
    70   69   73 1   
    71   70   71 1   
    72   70   74 1   
    73   70   75 1   
    74   71   72 2   
    75   71   76 1   
    76   76   77 1   
    77   76   85 1   
    78   77   78 1   
    79   77   80 1   
    80   77   86 1   
    81   78   79 2   
    82   78   93 1   
    83   80   81 1   
    84   80   87 1   
    85   80   88 1   
    86   81   82 1   
    87   81   89 1   
    88   81   90 1   
    89   82   83 1   
    90   82   84 2   
    91   83   91 1   
    92   83   92 1   
    93   93   94 1   
    94   93  100 1   
    95   94   95 1   
    96   94   97 1   
    97   94  101 1   
    98   95   96 2   
    99   95  109 1   
   100   97   98 1   
   101   97   99 1   
   102   97  102 1   
   103   98  103 1   
   104   98  104 1   
   105   98  105 1   
   106   99  106 1   
   107   99  107 1   
   108   99  108 1   
   109  109  110 1   
   110  109  117 1   
   111  110  111 1   
   112  110  113 1   
   113  110  118 1   
   114  111  112 2   
   115  111  123 1   
   116  113  114 1   
   117  113  119 1   
   118  113  120 1   
   119  114  115 1   
   120  114  116 2   
   121  115  121 1   
   122  115  122 1   
   123  123  124 1   
   124  123  135 1   
   125  124  125 1   
   126  124  127 1   
   127  124  136 1   
   128  125  126 2   
   129  125  144 1   
   130  127  128 1   
   131  127  137 1   
   132  127  138 1   
   133  128  129 ar  
   134  128  130 ar  
   135  129  131 ar  
   136  129  139 1   
   137  130  132 ar  
   138  130  140 1   
   139  131  133 ar  
   140  131  141 1   
   141  132  133 ar  
   142  132  142 1   
   143  133  134 1   
   144  134  143 1   
   145  144  145 1   
   146  144  153 1   
   147  145  146 1   
   148  145  148 1   
   149  145  154 1   
   150  146  147 2   
   151  146  159 1   
   152  148  149 1   
   153  148  155 1   
   154  148  156 1   
   155  149  150 1   
   156  149  157 1   
   157  149  158 1   
   158  150  151 1   
   159  150  152 1   
   160  159  160 1   
   161  159  168 1   
   162  160  161 1   
   163  160  163 1   
   164  160  169 1   
   165  161  162 2   
   166  161  174 1   
   167  163  164 1   
   168  163  170 1   
   169  163  171 1   
   170  164  165 1   
   171  164  172 1   
   172  164  173 1   
   173  165  166 1   
   174  165  167 1   
   175  174  175 1   
   176  174  179 1   
   177  175  176 1   
   178  175  177 1   
   179  175  178 1   
   180  181  182 1   
   181  181  183 1   
@<TRIPOS>SUBSTRUCTURE
     1 MOL         1 TEMP              0 ****  ****    0 ROOT
