@<TRIPOS>MOLECULE
MOL
  179   176     1     0     0
SMALL
resp


@<TRIPOS>ATOM
      1 C1          0.9420    3.8940    6.4740 c3        1 MOL     -0.244647
      2 C2          0.8990    3.6010    4.9590 c         1 MOL      0.717523
      3 O1          1.9510    3.5610    4.3370 o         1 MOL     -0.556664
      4 H1          0.0300    3.5210    6.9420 hc        1 MOL      0.057019
      5 H2          1.8050    3.3980    6.9170 hc        1 MOL      0.057019
      6 H3          1.0190    4.9690    6.6350 hc        1 MOL      0.057019
      7 N1         -0.3090    3.3420    4.3870 n         1 MOL     -0.605739
      8 C3         -0.5290    2.9760    2.9960 c3        1 MOL     -0.167129
      9 C4         -0.4790    4.1800    2.0520 c         1 MOL      0.815591
     10 O2         -1.0320    5.2170    2.2640 o         1 MOL     -0.570723
     11 C5         -1.8230    2.2050    2.8370 c3        1 MOL      0.137996
     12 C6         -1.8870    1.3010    1.5760 c         1 MOL      0.380598
     13 O3         -2.7520    0.4110    1.4730 o         1 MOL     -0.620238
     14 O4         -1.1610    1.5320    0.6010 o         1 MOL     -0.620238
     15 H4         -1.1060    3.3980    5.0000 hn        1 MOL      0.334139
     16 H5          0.2580    2.2670    2.7470 h1        1 MOL      0.125277
     17 H6         -2.6750    2.8600    2.9930 hc        1 MOL      0.009409
     18 H7         -1.9680    1.5730    3.7190 hc        1 MOL      0.009409
     19 N2          0.0920    3.9630    0.8700 n         1 MOL     -0.644117
     20 C7          0.2730    4.9860   -0.1850 c3        1 MOL     -0.043180
     21 C8         -1.0730    5.3320   -0.8920 c         1 MOL      0.504363
     22 O5         -1.2100    6.5380   -1.2840 o         1 MOL     -0.564131
     23 C9          1.2480    4.4650   -1.2500 c3        1 MOL     -0.033522
     24 C10         1.8060    5.7120   -2.0300 c3        1 MOL     -0.255123
     25 C11         2.8960    5.2450   -2.9570 c3        1 MOL     -0.012181
     26 C12         3.7180    6.4580   -3.3360 c3        1 MOL      0.210798
     27 N3          4.8890    6.1790   -4.1750 n4        1 MOL     -0.487552
     28 H8          0.3130    3.0040    0.6380 hn        1 MOL      0.302567
     29 H9          0.6460    5.8770    0.3170 h1        1 MOL      0.129010
     30 H10         0.7280    3.7530   -1.8950 hc        1 MOL      0.112798
     31 H11         2.0770    4.0030   -0.7140 hc        1 MOL      0.112798
     32 H12         2.2080    6.4810   -1.3570 hc        1 MOL      0.094388
     33 H13         1.0310    6.2180   -2.6190 hc        1 MOL      0.094388
     34 H14         2.6150    4.8250   -3.9290 hc        1 MOL      0.034141
     35 H15         3.5010    4.5200   -2.4230 hc        1 MOL      0.034141
     36 H16         4.0540    6.9290   -2.4090 hx        1 MOL      0.038867
     37 H17         3.1230    7.2640   -3.7690 hx        1 MOL      0.038867
     38 H18         5.5460    5.6980   -3.5840 hn        1 MOL      0.353997
     39 H19         4.7420    5.6680   -5.0360 hn        1 MOL      0.353997
     40 H20         5.3050    7.0720   -4.3940 hn        1 MOL      0.353997
     41 N4         -2.0070    4.3150   -1.0790 n         1 MOL     -0.329647
     42 C13        -3.3250    4.4430   -1.7430 c3        1 MOL     -0.080651
     43 C14        -4.4040    4.0820   -0.7250 c         1 MOL      0.595024
     44 O6         -5.5610    4.3880   -0.9050 o         1 MOL     -0.575385
     45 C15        -3.4080    3.6820   -3.0640 c3        1 MOL     -0.195285
     46 C16        -3.2300    2.2290   -2.9140 c         1 MOL      0.750725
     47 O7         -3.5050    1.5290   -3.8960 o         1 MOL     -0.719007
     48 O8         -2.7000    1.7650   -1.8640 o         1 MOL     -0.719007
     49 H21        -1.6780    3.4130   -0.7520 hn        1 MOL      0.339767
     50 H22        -3.5010    5.5030   -1.9150 h1        1 MOL      0.124400
     51 H23        -2.7400    4.1120   -3.8200 hc        1 MOL      0.080816
     52 H24        -4.3610    3.9560   -3.5180 hc        1 MOL      0.080816
     53 N5         -4.1150    3.5830    0.4750 n         1 MOL     -0.216401
     54 C17        -5.1000    3.1520    1.5280 c3        1 MOL     -0.130039
     55 C18        -6.0550    2.0310    1.0280 c         1 MOL      0.541800
     56 O9         -7.1820    1.7980    1.5660 o         1 MOL     -0.599427
     57 H25        -3.1580    3.2650    0.5420 hn        1 MOL      0.030849
     58 H26        -5.7440    3.9530    1.8840 h1        1 MOL      0.106325
     59 H27        -4.5690    2.7230    2.3840 h1        1 MOL      0.106325
     60 N6         -5.5610    1.2200    0.0930 n         1 MOL     -0.031541
     61 C19        -6.4600    0.3200   -0.6240 c3        1 MOL     -0.098150
     62 C20        -6.8050   -1.0390    0.0460 c         1 MOL      0.411096
     63 O10        -7.5290   -1.8950   -0.5560 o         1 MOL     -0.529021
     64 C21        -5.9740    0.1170   -1.9890 c3        1 MOL     -0.166269
     65 C22        -4.9430   -1.0160   -2.0000 c         1 MOL      0.531787
     66 N7         -5.0710   -1.9100   -2.9430 n         1 MOL     -0.612222
     67 O11        -4.0140   -1.1320   -1.2090 o         1 MOL     -0.494189
     68 H28        -4.5780    1.1610   -0.1120 hn        1 MOL     -0.072360
     69 H29        -7.3560    0.9290   -0.7480 h1        1 MOL      0.140688
     70 H30        -5.5860    1.0140   -2.4640 hc        1 MOL      0.084428
     71 H31        -6.7890   -0.2890   -2.5940 hc        1 MOL      0.084428
     72 H32        -5.8880   -1.8720   -3.5290 hn        1 MOL      0.331142
     73 H33        -4.2940   -2.5480   -3.0430 hn        1 MOL      0.331142
     74 N8         -6.5150   -1.3780    1.2850 n         1 MOL     -0.190929
     75 C23        -6.6290   -2.7480    1.8170 c3        1 MOL     -0.200500
     76 C24        -5.2840   -3.4840    2.1680 c         1 MOL      0.654344
     77 O12        -5.4010   -4.4130    2.9380 o         1 MOL     -0.562674
     78 H34        -5.9750   -0.7660    1.8920 hn        1 MOL      0.222325
     79 H35        -7.0270   -3.3610    1.0070 h1        1 MOL      0.116931
     80 H36        -7.2490   -2.7430    2.7100 h1        1 MOL      0.116931
     81 N9         -4.0780   -3.0960    1.6410 n         1 MOL     -0.550888
     82 C25        -2.8700   -3.8760    1.8590 c3        1 MOL      0.030169
     83 C26        -1.6010   -3.0860    1.5580 c         1 MOL      0.480882
     84 O13        -1.5490   -2.3970    0.5360 o         1 MOL     -0.618675
     85 C27        -2.7700   -5.2070    1.0760 c3        1 MOL     -0.204213
     86 C28        -2.9680   -5.0770   -0.4280 ca        1 MOL      0.017180
     87 C29        -1.8450   -4.7560   -1.2790 ca        1 MOL     -0.105634
     88 C30        -4.2650   -5.2480   -0.9990 ca        1 MOL     -0.105634
     89 C31        -1.9970   -4.6020   -2.6520 ca        1 MOL     -0.348115
     90 C32        -4.4290   -5.0700   -2.4040 ca        1 MOL     -0.348115
     91 C33        -3.2930   -4.6450   -3.2090 ca        1 MOL      0.383674
     92 O14        -3.5100   -4.4520   -4.5190 oh        1 MOL     -0.523385
     93 H37        -4.0570   -2.3890    0.9140 hn        1 MOL      0.353568
     94 H38        -2.9160   -4.1550    2.9020 h1        1 MOL      0.104698
     95 H39        -3.4970   -5.8930    1.5030 hc        1 MOL      0.090581
     96 H40        -1.7710   -5.6090    1.2180 hc        1 MOL      0.090581
     97 H41        -0.8740   -4.6140   -0.8360 ha        1 MOL      0.165269
     98 H42        -5.0780   -5.6270   -0.3850 ha        1 MOL      0.165269
     99 H43        -1.1750   -4.2650   -3.2580 ha        1 MOL      0.175524
    100 H44        -5.3930   -5.0540   -2.8810 ha        1 MOL      0.175524
    101 H45        -2.7100   -4.5340   -5.0470 ho        1 MOL      0.382839
    102 N10        -0.6400   -3.1520    2.4350 n         1 MOL     -0.249548
    103 C34         0.6750   -2.5300    2.2500 c3        1 MOL     -0.219309
    104 C35         1.6440   -3.4430    1.4950 c         1 MOL      0.531166
    105 O15         1.5930   -4.6760    1.6820 o         1 MOL     -0.560281
    106 C36         1.1310   -2.0030    3.6600 c3        1 MOL      0.108954
    107 C37         0.0680   -1.0980    4.2250 c3        1 MOL      0.026184
    108 C38         2.4200   -1.1240    3.5170 c3        1 MOL     -0.190232
    109 C39         0.3170   -0.7640    5.7150 c3        1 MOL     -0.426697
    110 H46        -0.7150   -3.6960    3.2800 hn        1 MOL      0.231059
    111 H47         0.5070   -1.7050    1.5610 h1        1 MOL      0.214503
    112 H48         1.4360   -2.8120    4.3240 hc        1 MOL      0.040583
    113 H49        -0.9660   -1.4480    4.2080 hc        1 MOL      0.048495
    114 H50         0.1010   -0.1500    3.6890 hc        1 MOL      0.048495
    115 H51         3.3300   -1.7230    3.4770 hc        1 MOL      0.031059
    116 H52         2.4650   -0.6120    2.5580 hc        1 MOL      0.031059
    117 H53         2.5130   -0.3950    4.3130 hc        1 MOL      0.031059
    118 H54        -0.4560   -0.0430    5.9910 hc        1 MOL      0.111123
    119 H55         0.3860   -1.7040    6.2480 hc        1 MOL      0.111123
    120 H56         1.2910   -0.3120    5.9120 hc        1 MOL      0.111123
    121 N11         2.4140   -2.9380    0.5180 n         1 MOL     -0.293284
    122 C40         3.5200   -3.7750   -0.0800 c3        1 MOL      0.067382
    123 C41         4.9840   -3.2970    0.2330 c         1 MOL      0.324296
    124 O16         5.2160   -2.2520    0.8310 o         1 MOL     -0.341964
    125 C42         3.2760   -3.7640   -1.6000 c3        1 MOL      0.121878
    126 O17         1.9240   -4.1350   -1.8410 oh        1 MOL     -0.653237
    127 H57         2.1950   -2.0190    0.1810 hn        1 MOL      0.370264
    128 H58         3.3770   -4.8120    0.2170 h1        1 MOL      0.083597
    129 H59         3.9170   -4.4940   -2.1010 h1        1 MOL      0.031361
    130 H60         3.3800   -2.7800   -2.0690 h1        1 MOL      0.031361
    131 H61         1.9350   -5.0750   -2.0700 ho        1 MOL      0.429427
    132 N12         5.9960   -4.0340   -0.2420 n         1 MOL     -0.419511
    133 C43         7.4350   -3.7190   -0.0290 c3        1 MOL      0.193128
    134 C44         7.8660   -2.2970   -0.5010 c         1 MOL      0.354684
    135 O18         8.7430   -1.6700    0.0900 o         1 MOL     -0.496545
    136 C45         8.3150   -4.8000   -0.7580 c3        1 MOL     -0.510221
    137 H62         5.7870   -4.9400   -0.6330 hn        1 MOL      0.279370
    138 H63         7.7220   -3.6920    1.0240 h1        1 MOL      0.079867
    139 H64         8.0260   -5.8050   -0.4370 hc        1 MOL      0.153887
    140 H65         8.3760   -4.6440   -1.8330 hc        1 MOL      0.153887
    141 H66         9.3580   -4.6060   -0.5040 hc        1 MOL      0.153887
    142 N13         7.3050   -1.8240   -1.5930 n         1 MOL     -0.114876
    143 C46         7.6260   -0.4840   -2.1060 c3        1 MOL      0.071963
    144 C47         6.9830    0.6730   -1.4200 c         1 MOL      0.310251
    145 O19         7.5800    1.7160   -1.0960 o         1 MOL     -0.484831
    146 C48         7.3850   -0.4430   -3.6390 c3        1 MOL     -0.236253
    147 H67         6.7130   -2.4990   -2.0690 hn        1 MOL      0.119750
    148 H68         8.6910   -0.3210   -1.9190 h1        1 MOL      0.097242
    149 H69         8.0110   -1.1920   -4.1230 hc        1 MOL      0.066859
    150 H70         6.3120   -0.6650   -3.6770 hc        1 MOL      0.066859
    151 H71         7.5400    0.5220   -4.1220 hc        1 MOL      0.066859
    152 N14         5.7810    0.3610   -0.8640 n         1 MOL     -0.068239
    153 C49         5.0060    1.2270    0.0650 c3        1 MOL     -0.344808
    154 C50         5.5870    1.3270    1.5070 c         1 MOL      0.518757
    155 O20         5.5810    2.3850    2.1280 o         1 MOL     -0.534205
    156 C51         3.5590    0.7770    0.1240 c3        1 MOL      0.299322
    157 C52         2.8640    0.9970   -1.2040 c3        1 MOL     -0.154350
    158 C53         1.4820    0.4640   -1.1990 c         1 MOL      0.837481
    159 O21         1.0600   -0.2830   -0.3410 o         1 MOL     -0.840335
    160 O22         0.6130    0.9040   -2.0200 o         1 MOL     -0.840335
    161 H72         5.4230   -0.5590   -1.0510 hn        1 MOL      0.159430
    162 H73         4.9360    2.2450   -0.3130 h1        1 MOL      0.120561
    163 H74         3.1290    1.3950    0.9120 hc        1 MOL     -0.033263
    164 H75         3.4510   -0.2580    0.4420 hc        1 MOL     -0.033263
    165 H76         3.4230    0.5400   -2.0280 hc        1 MOL     -0.032805
    166 H77         2.8400    2.0660   -1.4340 hc        1 MOL     -0.032805
    167 N15         6.1940    0.2130    1.8880 n         1 MOL     -0.038811
    168 C54         7.0880    0.0800    3.0160 c3        1 MOL     -0.421899
    169 H78         7.8950    0.8060    2.9260 h1        1 MOL      0.148856
    170 H79         6.5390    0.2600    3.9390 h1        1 MOL      0.148856
    171 H80         7.5070   -0.9270    3.0300 h1        1 MOL      0.148856
    172 H81         6.0860   -0.5960    1.2860 hn        1 MOL      0.075921
    173 Ca1        -1.4350   -0.3860   -1.1420 Ca        1 MOL      1.825519
    174 O23        -2.3810   -0.8900   -3.9070 oh        1 MOL     -0.911852
    175 H82        -3.0680   -0.2280   -3.9880 ho        1 MOL      0.423148
    176 H83        -2.0240   -0.9790   -4.7880 ho        1 MOL      0.423148
    177 O24         0.0890   -2.1490   -2.4990 oh        1 MOL     -0.911852
    178 H84         0.2940   -1.7320   -3.3320 ho        1 MOL      0.423148
    179 H85         0.8140   -2.7640   -2.3570 ho        1 MOL      0.423148
@<TRIPOS>BOND
     1    1    2 1   
     2    1    4 1   
     3    1    5 1   
     4    1    6 1   
     5    2    3 2   
     6    2    7 1   
     7    7    8 1   
     8    7   15 1   
     9    8    9 1   
    10    8   11 1   
    11    8   16 1   
    12    9   10 2   
    13    9   19 1   
    14   11   12 1   
    15   11   17 1   
    16   11   18 1   
    17   12   13 1   
    18   12   14 1   
    19   19   20 1   
    20   19   28 1   
    21   20   21 1   
    22   20   23 1   
    23   20   29 1   
    24   21   22 2   
    25   21   41 1   
    26   23   24 1   
    27   23   30 1   
    28   23   31 1   
    29   24   25 1   
    30   24   32 1   
    31   24   33 1   
    32   25   26 1   
    33   25   34 1   
    34   25   35 1   
    35   26   27 1   
    36   26   36 1   
    37   26   37 1   
    38   27   38 1   
    39   27   39 1   
    40   27   40 1   
    41   41   42 1   
    42   41   49 1   
    43   42   43 1   
    44   42   45 1   
    45   42   50 1   
    46   43   44 2   
    47   43   53 1   
    48   45   46 1   
    49   45   51 1   
    50   45   52 1   
    51   46   47 1   
    52   46   48 1   
    53   53   54 1   
    54   53   57 1   
    55   54   55 1   
    56   54   58 1   
    57   54   59 1   
    58   55   56 2   
    59   55   60 1   
    60   60   61 1   
    61   60   68 1   
    62   61   62 1   
    63   61   64 1   
    64   61   69 1   
    65   62   63 2   
    66   62   74 1   
    67   64   65 1   
    68   64   70 1   
    69   64   71 1   
    70   65   66 1   
    71   65   67 2   
    72   66   72 1   
    73   66   73 1   
    74   74   75 1   
    75   74   78 1   
    76   75   76 1   
    77   75   79 1   
    78   75   80 1   
    79   76   77 2   
    80   76   81 1   
    81   81   82 1   
    82   81   93 1   
    83   82   83 1   
    84   82   85 1   
    85   82   94 1   
    86   83   84 2   
    87   83  102 1   
    88   85   86 1   
    89   85   95 1   
    90   85   96 1   
    91   86   87 ar  
    92   86   88 ar  
    93   87   89 ar  
    94   87   97 1   
    95   88   90 ar  
    96   88   98 1   
    97   89   91 ar  
    98   89   99 1   
    99   90   91 ar  
   100   90  100 1   
   101   91   92 1   
   102   92  101 1   
   103  102  103 1   
   104  102  110 1   
   105  103  104 1   
   106  103  106 1   
   107  103  111 1   
   108  104  105 2   
   109  104  121 1   
   110  106  107 1   
   111  106  108 1   
   112  106  112 1   
   113  107  109 1   
   114  107  113 1   
   115  107  114 1   
   116  108  115 1   
   117  108  116 1   
   118  108  117 1   
   119  109  118 1   
   120  109  119 1   
   121  109  120 1   
   122  121  122 1   
   123  121  127 1   
   124  122  123 1   
   125  122  125 1   
   126  122  128 1   
   127  123  124 2   
   128  123  132 1   
   129  125  126 1   
   130  125  129 1   
   131  125  130 1   
   132  126  131 1   
   133  132  133 1   
   134  132  137 1   
   135  133  134 1   
   136  133  136 1   
   137  133  138 1   
   138  134  135 2   
   139  134  142 1   
   140  136  139 1   
   141  136  140 1   
   142  136  141 1   
   143  142  143 1   
   144  142  147 1   
   145  143  144 1   
   146  143  146 1   
   147  143  148 1   
   148  144  145 2   
   149  144  152 1   
   150  146  149 1   
   151  146  150 1   
   152  146  151 1   
   153  152  153 1   
   154  152  161 1   
   155  153  154 1   
   156  153  156 1   
   157  153  162 1   
   158  154  155 2   
   159  154  167 1   
   160  156  157 1   
   161  156  163 1   
   162  156  164 1   
   163  157  158 1   
   164  157  165 1   
   165  157  166 1   
   166  158  159 1   
   167  158  160 1   
   168  167  168 1   
   169  167  172 1   
   170  168  169 1   
   171  168  170 1   
   172  168  171 1   
   173  174  175 1   
   174  174  176 1   
   175  177  178 1   
   176  177  179 1   
@<TRIPOS>SUBSTRUCTURE
     1 MOL         1 TEMP              0 ****  ****    0 ROOT
