@<TRIPOS>MOLECULE
MOL
  176   174     1     0     0
SMALL
resp


@<TRIPOS>ATOM
      1 C1          0.8860    2.3560    6.4600 c3        1 MOL     -0.268485
      2 C2          0.6720    2.2370    4.9550 c         1 MOL      0.785962
      3 O1          1.5790    2.0520    4.1470 o         1 MOL     -0.593972
      4 H1          1.9510    2.4620    6.6680 hc        1 MOL      0.066969
      5 H2          0.3550    3.2310    6.8350 hc        1 MOL      0.066969
      6 H3          0.5080    1.4610    6.9530 hc        1 MOL      0.066969
      7 N1         -0.6090    2.4050    4.5190 n         1 MOL     -0.695613
      8 C3         -0.9840    2.3220    3.1010 c3        1 MOL      0.138837
      9 C4         -0.6940    3.6230    2.3430 c         1 MOL      0.740238
     10 O2         -1.1010    4.6870    2.8030 o         1 MOL     -0.603635
     11 C5         -2.4260    1.8050    3.0590 c3        1 MOL     -0.194088
     12 C6         -2.7490    1.1990    1.6880 c         1 MOL      0.791497
     13 O3         -3.0090    0.0020    1.5250 o         1 MOL     -0.764254
     14 O4         -2.4950    1.9310    0.6960 o         1 MOL     -0.764254
     15 H4         -1.4070    2.4780    5.1440 hn        1 MOL      0.338718
     16 H5         -0.3420    1.5770    2.6470 h1        1 MOL     -0.000936
     17 H6         -3.2030    2.5110    3.3510 hc        1 MOL      0.049150
     18 H7         -2.3960    0.9710    3.7680 hc        1 MOL      0.049150
     19 N2         -0.0620    3.6130    1.1450 n         1 MOL     -0.552519
     20 C7          0.3810    4.8100    0.3330 c3        1 MOL     -0.024929
     21 C8         -0.8340    5.3670   -0.3980 c         1 MOL      0.545175
     22 O5         -0.8550    6.5430   -0.7280 o         1 MOL     -0.594740
     23 C9          1.5580    4.4550   -0.5940 c3        1 MOL      0.060278
     24 C10         1.9480    5.6460   -1.4510 c3        1 MOL     -0.140021
     25 C11         3.2460    5.3770   -2.1930 c3        1 MOL      0.106967
     26 C12         3.4570    6.6420   -2.9360 c3        1 MOL     -0.046398
     27 N3          4.7940    6.8230   -3.5960 n4        1 MOL     -0.285448
     28 H8          0.0770    2.6930    0.7480 hn        1 MOL      0.247154
     29 H9          0.7070    5.5560    1.0580 h1        1 MOL      0.111125
     30 H10         1.2060    3.5910   -1.1490 hc        1 MOL      0.039332
     31 H11         2.4190    4.1270   -0.0070 hc        1 MOL      0.039332
     32 H12         1.9410    6.5570   -0.8520 hc        1 MOL      0.047207
     33 H13         1.2370    5.7470   -2.2650 hc        1 MOL      0.047207
     34 H14         3.1650    4.5980   -2.9520 hc        1 MOL      0.020603
     35 H15         4.0400    5.1120   -1.4930 hc        1 MOL      0.020603
     36 H16         3.3390    7.4830   -2.2510 hx        1 MOL      0.099412
     37 H17         2.7490    6.6010   -3.7620 hx        1 MOL      0.099412
     38 H18         5.1970    5.9290   -3.8470 hn        1 MOL      0.305532
     39 H19         4.7910    7.4510   -4.3840 hn        1 MOL      0.305532
     40 H20         5.4060    7.2290   -2.9000 hn        1 MOL      0.305532
     41 N4         -1.8230    4.5170   -0.6930 n         1 MOL     -0.361293
     42 C13        -3.0100    4.8260   -1.5760 c3        1 MOL      0.177475
     43 C14        -4.3600    4.6500   -0.8780 c         1 MOL      0.340124
     44 O6         -5.3750    4.9360   -1.4440 o         1 MOL     -0.500114
     45 C15        -2.9340    3.9520   -2.8650 c3        1 MOL     -0.520486
     46 C16        -2.6270    2.4860   -2.5940 c         1 MOL      0.928243
     47 O7         -3.4710    1.7140   -2.1220 o         1 MOL     -0.828719
     48 O8         -1.4750    2.0170   -2.6270 o         1 MOL     -0.828719
     49 H21        -1.7530    3.5430   -0.4720 hn        1 MOL      0.339495
     50 H22        -2.9450    5.8890   -1.8080 h1        1 MOL      0.092585
     51 H23        -2.1080    4.4310   -3.3940 hc        1 MOL      0.135147
     52 H24        -3.9110    3.9530   -3.3350 hc        1 MOL      0.135147
     53 N5         -4.3320    3.9800    0.3070 n         1 MOL     -0.134137
     54 C17        -5.4610    3.4960    1.1130 c3        1 MOL     -0.241978
     55 C18        -6.1130    2.1710    0.6780 c         1 MOL      0.598375
     56 O9         -7.1180    1.8600    1.2740 o         1 MOL     -0.583980
     57 H25        -3.4330    3.7630    0.7190 hn        1 MOL      0.107824
     58 H26        -6.1810    4.3020    1.2280 h1        1 MOL      0.124445
     59 H27        -5.0020    3.1630    2.0500 h1        1 MOL      0.124445
     60 N6         -5.6840    1.3890   -0.3350 n         1 MOL     -0.390455
     61 C19        -6.5630    0.2650   -0.8060 c3        1 MOL      0.113932
     62 C20        -6.7380   -0.8700    0.2610 c         1 MOL      0.358548
     63 O10        -7.6810   -1.6720    0.2130 o         1 MOL     -0.558428
     64 C21        -6.1620   -0.2220   -2.1790 c3        1 MOL     -0.476146
     65 C22        -4.9620   -1.1400   -2.2490 c         1 MOL      0.690103
     66 N7         -4.5750   -1.5070   -3.4410 n         1 MOL     -0.599814
     67 O11        -4.1450   -1.0960   -1.3200 o         1 MOL     -0.564911
     68 H28        -4.8790    1.6530   -0.8880 hn        1 MOL      0.356740
     69 H29        -7.5540    0.6980   -0.8610 h1        1 MOL      0.095347
     70 H30        -5.9540    0.7010   -2.7280 hc        1 MOL      0.142679
     71 H31        -6.9780   -0.8240   -2.5560 hc        1 MOL      0.142679
     72 H32        -5.2910   -1.4810   -4.1510 hn        1 MOL      0.302267
     73 H33        -3.6030   -1.7140   -3.5860 hn        1 MOL      0.302267
     74 N8         -5.8170   -0.9520    1.1770 n         1 MOL      0.022823
     75 C23        -5.9300   -1.8210    2.3340 c3        1 MOL     -0.037101
     76 C24        -4.8940   -3.0160    2.4360 c         1 MOL      0.445666
     77 O12        -5.1030   -3.9900    3.1030 o         1 MOL     -0.541790
     78 H34        -5.1030   -0.2410    1.1240 hn        1 MOL      0.110650
     79 H35        -6.9310   -2.2480    2.4700 h1        1 MOL      0.059062
     80 H36        -5.9030   -1.1510    3.1980 h1        1 MOL      0.059062
     81 N9         -3.8340   -2.9530    1.6510 n         1 MOL     -0.154862
     82 C25        -2.7350   -3.8830    1.5040 c3        1 MOL      0.008017
     83 C26        -1.4740   -3.1710    0.9200 c         1 MOL      0.416020
     84 O13        -1.5900   -2.2550    0.0820 o         1 MOL     -0.506804
     85 C27        -3.1740   -5.1640    0.7110 c3        1 MOL     -0.262619
     86 C28        -3.8230   -4.9170   -0.6930 ca        1 MOL      0.131055
     87 C29        -3.0640   -4.6730   -1.8550 ca        1 MOL     -0.215281
     88 C30        -5.2040   -5.1340   -0.7450 ca        1 MOL     -0.215281
     89 C31        -3.7100   -4.6550   -3.1050 ca        1 MOL     -0.205660
     90 C32        -5.8700   -5.1410   -2.0020 ca        1 MOL     -0.205660
     91 C33        -5.0980   -4.8770   -3.1460 ca        1 MOL      0.303194
     92 O14        -5.6860   -5.0350   -4.3810 oh        1 MOL     -0.548444
     93 H37        -3.7760   -2.1690    1.0170 hn        1 MOL      0.069896
     94 H38        -2.5490   -4.3820    2.4550 h1        1 MOL      0.079775
     95 H39        -3.9280   -5.6580    1.3310 hc        1 MOL      0.096901
     96 H40        -2.2350   -5.7120    0.6090 hc        1 MOL      0.096901
     97 H41        -2.0160   -4.4560   -1.7560 ha        1 MOL      0.172885
     98 H42        -5.7410   -5.3830    0.1570 ha        1 MOL      0.172885
     99 H43        -3.1450   -4.5740   -4.0240 ha        1 MOL      0.134831
    100 H44        -6.9430   -5.2430   -2.0620 ha        1 MOL      0.134831
    101 H45        -6.6420   -4.9460   -4.3080 ho        1 MOL      0.388164
    102 N10        -0.3070   -3.6030    1.4490 n         1 MOL     -0.283791
    103 C34         0.9880   -2.9530    1.2490 c3        1 MOL     -0.225331
    104 C35         2.1390   -3.9550    0.7360 c         1 MOL      0.434054
    105 O15         2.4960   -4.9540    1.4140 o         1 MOL     -0.500311
    106 C36         1.4820   -2.1480    2.5220 c3        1 MOL     -0.032779
    107 C37         1.9610   -3.0160    3.7650 c3        1 MOL     -0.014777
    108 C38         0.3050   -1.2630    3.1170 c3        1 MOL      0.087600
    109 C39         2.6140   -2.3410    4.9420 c3        1 MOL     -0.246750
    110 H46        -0.4090   -4.2810    2.1850 hn        1 MOL      0.288731
    111 H47         0.9370   -2.1820    0.4720 h1        1 MOL      0.249441
    112 H48         2.2790   -1.4670    2.2390 hc        1 MOL      0.028618
    113 H49         2.7380   -3.7170    3.4490 hc        1 MOL      0.039757
    114 H50         1.1140   -3.6570    4.0110 hc        1 MOL      0.039757
    115 H51        -0.5520   -1.8340    3.4870 hc        1 MOL     -0.002640
    116 H52         0.5910   -0.7480    4.0400 hc        1 MOL     -0.002640
    117 H53         0.0150   -0.5650    2.3390 hc        1 MOL     -0.002640
    118 H54         3.3460   -1.5500    4.7320 hc        1 MOL      0.067917
    119 H55         1.8650   -1.7810    5.4940 hc        1 MOL      0.067917
    120 H56         3.1080   -3.1310    5.4990 hc        1 MOL      0.067917
    121 N11         2.8630   -3.4940   -0.3190 n         1 MOL     -0.294777
    122 C40         4.1280   -4.1110   -0.7180 c3        1 MOL     -0.013644
    123 C41         5.3600   -3.3850   -0.1270 c         1 MOL      0.540760
    124 O16         5.2640   -2.4790    0.6820 o         1 MOL     -0.441214
    125 C42         4.1390   -4.0550   -2.2540 c3        1 MOL      0.062510
    126 O17         4.3340   -2.7690   -2.7120 oh        1 MOL     -0.584600
    127 H57         2.5090   -2.7610   -0.9070 hn        1 MOL      0.205957
    128 H58         4.1900   -5.1520   -0.4070 h1        1 MOL      0.072853
    129 H59         3.2120   -4.4290   -2.6910 h1        1 MOL      0.047146
    130 H60         4.9130   -4.7190   -2.6620 h1        1 MOL      0.047146
    131 H61         3.4590   -2.6100   -3.0740 ho        1 MOL      0.423305
    132 N12         6.4960   -3.8960   -0.5550 n         1 MOL     -0.407896
    133 C43         7.8490   -3.4700   -0.2260 c3        1 MOL      0.098520
    134 C44         8.0390   -1.9740   -0.5450 c         1 MOL      0.479689
    135 O18         8.6220   -1.2850    0.2560 o         1 MOL     -0.511026
    136 C45         8.8640   -4.2450   -1.0470 c3        1 MOL     -0.248226
    137 H62         6.5020   -4.7400   -1.1140 hn        1 MOL      0.249504
    138 H63         7.9070   -3.5340    0.8570 h1        1 MOL      0.078355
    139 H64         8.7050   -5.3100   -0.9270 hc        1 MOL      0.083278
    140 H65         8.9500   -3.9340   -2.0880 hc        1 MOL      0.083278
    141 H66         9.8460   -4.1430   -0.5700 hc        1 MOL      0.083278
    142 N13         7.5410   -1.4930   -1.7130 n         1 MOL     -0.352241
    143 C46         7.6540   -0.1320   -2.1770 c3        1 MOL      0.087146
    144 C47         6.8080    0.9400   -1.4360 c         1 MOL      0.422061
    145 O19         7.3320    2.0020   -1.2640 o         1 MOL     -0.507757
    146 C48         7.4730   -0.0690   -3.7210 c3        1 MOL     -0.357070
    147 H67         7.0370   -2.1550   -2.2840 hn        1 MOL      0.269142
    148 H68         8.6590    0.2540   -2.0000 h1        1 MOL      0.099209
    149 H69         6.7360   -0.7400   -4.1610 hc        1 MOL      0.098540
    150 H70         7.1850    0.9510   -3.9830 hc        1 MOL      0.098540
    151 H71         8.4300   -0.3520   -4.1600 hc        1 MOL      0.098540
    152 N14         5.6180    0.5350   -0.9070 n         1 MOL     -0.273828
    153 C49         4.9320    1.3400    0.0750 c3        1 MOL     -0.172732
    154 C50         5.6500    1.4820    1.4260 c         1 MOL      0.537999
    155 O20         5.5040    2.4970    2.1040 o         1 MOL     -0.548413
    156 C51         3.4790    0.7530    0.2440 c3        1 MOL     -0.067150
    157 C52         2.5640    0.7210   -1.0790 c3        1 MOL      0.016278
    158 C53         1.0680    0.2890   -0.7930 c         1 MOL      0.666309
    159 O21         0.6490   -0.7610   -1.2620 o         1 MOL     -0.739635
    160 O22         0.2650    0.9280   -0.0310 o         1 MOL     -0.739635
    161 H72         5.3220   -0.4010   -1.1670 hn        1 MOL      0.230606
    162 H73         4.8650    2.3710   -0.2880 h1        1 MOL      0.078353
    163 H74         2.9660    1.3540    0.9950 hc        1 MOL      0.092123
    164 H75         3.5630   -0.2430    0.6860 hc        1 MOL      0.092123
    165 H76         3.0480    0.1190   -1.8480 hc        1 MOL     -0.031425
    166 H77         2.5540    1.6930   -1.5590 hc        1 MOL     -0.031425
    167 N15         6.3860    0.4540    1.8060 n         1 MOL     -0.137431
    168 C54         6.9910    0.2440    3.1290 c3        1 MOL     -0.250983
    169 H78         8.0730    0.3500    3.0530 h1        1 MOL      0.113055
    170 H79         6.6020    0.9840    3.8290 h1        1 MOL      0.113055
    171 H80         6.7480   -0.7570    3.4860 h1        1 MOL      0.113055
    172 H81         6.3130   -0.2870    1.1220 hn        1 MOL      0.140780
    173 Ca1        -1.8910    0.0850   -0.9430 Ca        1 MOL      1.716003
    174 O23        -1.5860   -1.3720   -3.5130 oh        1 MOL     -0.793695
    175 H82        -0.6920   -1.7010   -3.5670 ho        1 MOL      0.406440
    176 H83        -1.6990   -0.8520   -4.3110 ho        1 MOL      0.406440
@<TRIPOS>BOND
     1    1    2 1   
     2    1    4 1   
     3    1    5 1   
     4    1    6 1   
     5    2    3 2   
     6    2    7 1   
     7    7    8 1   
     8    7   15 1   
     9    8    9 1   
    10    8   11 1   
    11    8   16 1   
    12    9   10 2   
    13    9   19 1   
    14   11   12 1   
    15   11   17 1   
    16   11   18 1   
    17   12   13 1   
    18   12   14 1   
    19   19   20 1   
    20   19   28 1   
    21   20   21 1   
    22   20   23 1   
    23   20   29 1   
    24   21   22 2   
    25   21   41 1   
    26   23   24 1   
    27   23   30 1   
    28   23   31 1   
    29   24   25 1   
    30   24   32 1   
    31   24   33 1   
    32   25   26 1   
    33   25   34 1   
    34   25   35 1   
    35   26   27 1   
    36   26   36 1   
    37   26   37 1   
    38   27   38 1   
    39   27   39 1   
    40   27   40 1   
    41   41   42 1   
    42   41   49 1   
    43   42   43 1   
    44   42   45 1   
    45   42   50 1   
    46   43   44 2   
    47   43   53 1   
    48   45   46 1   
    49   45   51 1   
    50   45   52 1   
    51   46   47 1   
    52   46   48 1   
    53   53   54 1   
    54   53   57 1   
    55   54   55 1   
    56   54   58 1   
    57   54   59 1   
    58   55   56 2   
    59   55   60 1   
    60   60   61 1   
    61   60   68 1   
    62   61   62 1   
    63   61   64 1   
    64   61   69 1   
    65   62   63 2   
    66   62   74 1   
    67   64   65 1   
    68   64   70 1   
    69   64   71 1   
    70   65   66 1   
    71   65   67 2   
    72   66   72 1   
    73   66   73 1   
    74   74   75 1   
    75   74   78 1   
    76   75   76 1   
    77   75   79 1   
    78   75   80 1   
    79   76   77 2   
    80   76   81 1   
    81   81   82 1   
    82   81   93 1   
    83   82   83 1   
    84   82   85 1   
    85   82   94 1   
    86   83   84 2   
    87   83  102 1   
    88   85   86 1   
    89   85   95 1   
    90   85   96 1   
    91   86   87 ar  
    92   86   88 ar  
    93   87   89 ar  
    94   87   97 1   
    95   88   90 ar  
    96   88   98 1   
    97   89   91 ar  
    98   89   99 1   
    99   90   91 ar  
   100   90  100 1   
   101   91   92 1   
   102   92  101 1   
   103  102  103 1   
   104  102  110 1   
   105  103  104 1   
   106  103  106 1   
   107  103  111 1   
   108  104  105 2   
   109  104  121 1   
   110  106  107 1   
   111  106  108 1   
   112  106  112 1   
   113  107  109 1   
   114  107  113 1   
   115  107  114 1   
   116  108  115 1   
   117  108  116 1   
   118  108  117 1   
   119  109  118 1   
   120  109  119 1   
   121  109  120 1   
   122  121  122 1   
   123  121  127 1   
   124  122  123 1   
   125  122  125 1   
   126  122  128 1   
   127  123  124 2   
   128  123  132 1   
   129  125  126 1   
   130  125  129 1   
   131  125  130 1   
   132  126  131 1   
   133  132  133 1   
   134  132  137 1   
   135  133  134 1   
   136  133  136 1   
   137  133  138 1   
   138  134  135 2   
   139  134  142 1   
   140  136  139 1   
   141  136  140 1   
   142  136  141 1   
   143  142  143 1   
   144  142  147 1   
   145  143  144 1   
   146  143  146 1   
   147  143  148 1   
   148  144  145 2   
   149  144  152 1   
   150  146  149 1   
   151  146  150 1   
   152  146  151 1   
   153  152  153 1   
   154  152  161 1   
   155  153  154 1   
   156  153  156 1   
   157  153  162 1   
   158  154  155 2   
   159  154  167 1   
   160  156  157 1   
   161  156  163 1   
   162  156  164 1   
   163  157  158 1   
   164  157  165 1   
   165  157  166 1   
   166  158  159 1   
   167  158  160 1   
   168  167  168 1   
   169  167  172 1   
   170  168  169 1   
   171  168  170 1   
   172  168  171 1   
   173  174  175 1   
   174  174  176 1   
@<TRIPOS>SUBSTRUCTURE
     1 MOL         1 TEMP              0 ****  ****    0 ROOT
