@<TRIPOS>MOLECULE
MOL
  189   185     1     0     0
SMALL
resp


@<TRIPOS>ATOM
      1 C1         -0.2980    3.8490   -4.6300 c3        1 MOL     -0.278758
      2 C2          0.3000    3.4670   -3.2480 c         1 MOL      0.727272
      3 O1         -0.1990    3.8610   -2.1630 o         1 MOL     -0.649334
      4 H1         -0.8430    2.9970   -5.0370 hc        1 MOL      0.068409
      5 H2         -0.9770    4.6930   -4.5110 hc        1 MOL      0.068409
      6 H3          0.5070    4.1230   -5.3110 hc        1 MOL      0.068409
      7 N1          1.3500    2.6340   -3.2350 n         1 MOL     -0.634546
      8 C3          2.1310    2.3700   -2.0000 c3        1 MOL      0.177069
      9 C4          2.7420    3.6100   -1.3700 c         1 MOL      0.434286
     10 O2          3.5690    4.3630   -1.8760 o         1 MOL     -0.562600
     11 C5          3.1950    1.3280   -2.2940 c3        1 MOL     -0.193670
     12 C6          3.7250    0.6410   -1.0610 c         1 MOL      0.835651
     13 O3          3.2930    0.9020    0.0770 o         1 MOL     -0.763184
     14 O4          4.4840   -0.3610   -1.2490 o         1 MOL     -0.763184
     15 H4          1.7300    2.3670   -4.1300 hn        1 MOL      0.341024
     16 H5          1.4380    1.8970   -1.3060 h1        1 MOL      0.065654
     17 H6          3.9760    1.7890   -2.9130 hc        1 MOL      0.036294
     18 H7          2.7170    0.5360   -2.8640 hc        1 MOL      0.036294
     19 N2          2.2060    3.9290   -0.1680 n         1 MOL     -0.202409
     20 C7          2.5000    5.1260    0.5950 c3        1 MOL     -0.020454
     21 C8          3.2270    4.7910    1.9400 c         1 MOL      0.520883
     22 O5          3.2220    5.6380    2.8520 o         1 MOL     -0.548932
     23 C9          1.2360    5.9460    0.7340 c3        1 MOL     -0.006381
     24 C10         0.9020    6.8920   -0.5150 c3        1 MOL      0.004843
     25 C11        -0.3910    7.7440   -0.3710 c3        1 MOL      0.171023
     26 C12        -0.5860    8.7530   -1.4400 c3        1 MOL     -0.013866
     27 N3         -1.6140    8.3570   -2.5200 n4        1 MOL     -0.381876
     28 H8          1.5930    3.2520    0.2510 hn        1 MOL      0.284904
     29 H9          3.2000    5.7590    0.0560 h1        1 MOL      0.061774
     30 H10         1.3380    6.6230    1.5830 hc        1 MOL      0.013964
     31 H11         0.3470    5.3320    0.8710 hc        1 MOL      0.013964
     32 H12         0.6400    6.3390   -1.4140 hc        1 MOL     -0.000575
     33 H13         1.6650    7.6500   -0.6920 hc        1 MOL     -0.000575
     34 H14        -0.3280    8.3340    0.5430 hc        1 MOL     -0.012727
     35 H15        -1.2910    7.1640   -0.2140 hc        1 MOL     -0.012727
     36 H16         0.3860    8.8150   -1.9340 hx        1 MOL      0.076054
     37 H17        -0.8320    9.6920   -0.9490 hx        1 MOL      0.076054
     38 H18        -1.7420    9.1870   -3.0790 hn        1 MOL      0.331703
     39 H19        -1.3140    7.6540   -3.1780 hn        1 MOL      0.331703
     40 H20        -2.4930    8.0680   -2.1140 hn        1 MOL      0.331703
     41 N4          3.7090    3.5750    2.0050 n         1 MOL     -0.333321
     42 C13         4.7780    3.2630    2.9910 c3        1 MOL      0.030406
     43 C14         6.0310    2.5710    2.3660 c         1 MOL      0.378391
     44 O6          7.0120    2.4360    3.0660 o         1 MOL     -0.495352
     45 C15         4.2670    2.4620    4.1540 c3        1 MOL     -0.319150
     46 C16         3.4860    1.2240    3.8130 c         1 MOL      0.744384
     47 O7          3.6200    0.4850    2.7970 o         1 MOL     -0.635066
     48 O8          2.5940    1.0110    4.6770 o         1 MOL     -0.635066
     49 H21         3.4500    2.8310    1.3710 hn        1 MOL      0.173357
     50 H22         5.2260    4.1850    3.3460 h1        1 MOL      0.094592
     51 H23         3.7040    3.2570    4.6460 hc        1 MOL      0.105416
     52 H24         5.1290    2.1590    4.7490 hc        1 MOL      0.105416
     53 N5          5.8960    2.0160    1.1240 n         1 MOL     -0.199587
     54 C17         6.9290    1.3720    0.3120 c3        1 MOL     -0.265979
     55 C18         7.2060   -0.0340    0.7070 c         1 MOL      0.579325
     56 O9          8.3270   -0.5070    0.4340 o         1 MOL     -0.621722
     57 H25         4.9410    2.0750    0.8050 hn        1 MOL      0.154391
     58 H26         7.8840    1.8310    0.5480 h1        1 MOL      0.127432
     59 H27         6.6610    1.3170   -0.7450 h1        1 MOL      0.127432
     60 N6          6.2720   -0.7700    1.3150 n         1 MOL     -0.155962
     61 C19         6.6570   -2.1490    1.7850 c3        1 MOL     -0.244631
     62 C20         6.6600   -3.2080    0.6530 c         1 MOL      0.561621
     63 O10         6.8510   -4.4050    0.9570 o         1 MOL     -0.545632
     64 C21         5.8790   -2.5600    2.9660 c3        1 MOL     -0.143839
     65 C22         4.3550   -2.5890    2.7690 c         1 MOL      0.619505
     66 O11         3.8450   -2.4620    1.6280 o         1 MOL     -0.676522
     67 O12         3.5620   -2.8070    3.7350 o         1 MOL     -0.676522
     68 H28         5.3780   -0.4050    1.6210 hn        1 MOL      0.201570
     69 H29         7.7220   -2.0790    2.0050 h1        1 MOL      0.159065
     70 H30         5.9750   -2.0340    3.9220 hc        1 MOL      0.080853
     71 H31         6.1060   -3.5730    3.2920 hc        1 MOL      0.080853
     72 N7          6.5940   -2.8360   -0.6680 n         1 MOL     -0.324687
     73 C23         6.6170   -3.7570   -1.7670 c3        1 MOL     -0.255816
     74 C24         5.3270   -4.3010   -2.3080 c         1 MOL      0.529705
     75 O13         5.2950   -5.1020   -3.2360 o         1 MOL     -0.568821
     76 H32         6.2300   -1.9140   -0.8120 hn        1 MOL      0.335414
     77 H33         7.2400   -4.5840   -1.4410 h1        1 MOL      0.127207
     78 H34         7.0630   -3.2570   -2.6230 h1        1 MOL      0.127207
     79 N8          4.2100   -3.8800   -1.6910 n         1 MOL     -0.043725
     80 C25         2.8600   -4.2600   -2.1030 c3        1 MOL     -0.409255
     81 C26         1.8110   -3.2220   -1.7180 c         1 MOL      0.941467
     82 O14         2.0020   -2.2720   -0.9130 o         1 MOL     -0.676368
     83 C27         2.5030   -5.6030   -1.4260 c3        1 MOL      0.493981
     84 C28         3.3400   -6.8840   -1.7500 c3        1 MOL     -0.365504
     85 O15         2.3750   -5.4300   -0.0360 oh        1 MOL     -0.685410
     86 H35         4.3150   -3.1170   -1.0270 hn        1 MOL      0.105039
     87 H36         2.8800   -4.4460   -3.1770 h1        1 MOL      0.119457
     88 H37         1.4980   -5.8480   -1.7560 h1        1 MOL      0.002860
     89 H38         3.1520   -5.0430    0.3850 ho        1 MOL      0.388362
     90 H39         3.3930   -7.0070   -2.8390 hc        1 MOL      0.099576
     91 H40         4.3000   -6.7930   -1.2290 hc        1 MOL      0.099576
     92 H41         2.7400   -7.7190   -1.4020 hc        1 MOL      0.099576
     93 N9          0.6690   -3.3200   -2.4170 n         1 MOL     -0.792921
     94 C29        -0.4000   -2.2890   -2.5010 c3        1 MOL      0.009745
     95 C30        -1.6300   -2.9850   -1.9380 c         1 MOL      0.576303
     96 O16        -2.0680   -3.9770   -2.5360 o         1 MOL     -0.569685
     97 C31        -0.4910   -1.7590   -3.9560 c3        1 MOL      0.218571
     98 C32         0.7580   -0.9090   -4.3200 c3        1 MOL      0.222037
     99 C33        -1.7500   -0.8270   -4.1240 c3        1 MOL     -0.673551
    100 C34         0.9220   -0.6190   -5.8820 c3        1 MOL     -0.278976
    101 H42         0.4030   -4.2340   -2.7480 hn        1 MOL      0.340296
    102 H43        -0.1010   -1.4860   -1.8240 h1        1 MOL      0.059540
    103 H44        -0.4620   -2.5600   -4.6910 hc        1 MOL      0.011906
    104 H45         1.6590   -1.3730   -3.9070 hc        1 MOL     -0.017385
    105 H46         0.6000    0.0500   -3.8130 hc        1 MOL     -0.017385
    106 H47        -1.6190    0.0510   -3.4820 hc        1 MOL      0.165319
    107 H48        -1.7840   -0.4980   -5.1610 hc        1 MOL      0.165319
    108 H49        -2.6120   -1.4390   -3.8680 hc        1 MOL      0.165319
    109 H50         0.1540    0.0620   -6.2410 hc        1 MOL      0.056788
    110 H51         1.8590   -0.0690   -5.9110 hc        1 MOL      0.056788
    111 H52         0.9290   -1.5340   -6.4790 hc        1 MOL      0.056788
    112 N10        -2.2400   -2.3640   -0.9030 n         1 MOL     -0.141847
    113 C35        -3.4600   -2.8260   -0.2530 c3        1 MOL     -0.250647
    114 C36        -4.7780   -2.2830   -0.8970 c         1 MOL      0.541871
    115 O17        -4.7630   -1.3600   -1.6740 o         1 MOL     -0.453041
    116 C37        -3.4290   -2.4400    1.2310 c3        1 MOL      0.100022
    117 C38        -2.2610   -3.0850    1.8990 c3        1 MOL     -0.424484
    118 O18        -3.6390   -1.0480    1.3890 oh        1 MOL     -0.383896
    119 H53        -1.7870   -1.5330   -0.5600 hn        1 MOL      0.307271
    120 H54        -3.4580   -3.9170   -0.1990 h1        1 MOL      0.120593
    121 H55        -4.3460   -2.8920    1.6020 h1        1 MOL      0.023177
    122 H56        -2.9120   -0.7380    1.9300 ho        1 MOL      0.341125
    123 H57        -2.4640   -4.1590    1.7930 hc        1 MOL      0.132409
    124 H58        -1.3040   -2.8070    1.4630 hc        1 MOL      0.132409
    125 H59        -2.2930   -2.9110    2.9700 hc        1 MOL      0.132409
    126 N11        -5.8980   -2.8430   -0.5820 n         1 MOL     -0.399988
    127 C39        -7.2500   -2.2670   -0.8980 c3        1 MOL     -0.018809
    128 C40        -7.3610   -0.8030   -0.2840 c         1 MOL      0.313768
    129 O19        -7.8940    0.0630   -0.9450 o         1 MOL     -0.484271
    130 C41        -8.4200   -3.0080   -0.3720 c3        1 MOL      0.109863
    131 C42        -8.5250   -4.4330   -1.0070 c3        1 MOL     -0.388404
    132 O20        -8.2410   -3.2610    1.0690 oh        1 MOL     -0.631891
    133 H60        -5.8840   -3.6660    0.0090 hn        1 MOL      0.288804
    134 H61        -7.4190   -2.1230   -1.9650 h1        1 MOL      0.154848
    135 H62        -9.3660   -2.5020   -0.5550 h1        1 MOL      0.110946
    136 H63        -8.7660   -4.0370    1.2570 ho        1 MOL      0.415326
    137 H64        -7.7580   -5.1110   -0.6190 hc        1 MOL      0.121818
    138 H65        -9.4660   -4.9200   -0.7770 hc        1 MOL      0.121818
    139 H66        -8.4370   -4.4180   -2.0950 hc        1 MOL      0.121818
    140 N12        -6.7830   -0.5300    0.9100 n         1 MOL     -0.027113
    141 C43        -6.8250    0.7610    1.5470 c3        1 MOL      0.039907
    142 C44        -6.0130    1.8230    0.7170 c         1 MOL      0.281536
    143 O21        -6.4820    2.9620    0.5030 o         1 MOL     -0.525090
    144 C45        -6.2980    0.6500    2.9930 c3        1 MOL     -0.086604
    145 C46        -6.8810   -0.3900    3.9000 c3        1 MOL     -0.101631
    146 C47        -8.3960   -0.1730    4.0800 c3        1 MOL      0.234378
    147 C48        -8.8350   -1.2190    5.1440 c3        1 MOL     -0.073505
    148 N13       -10.3050   -1.2560    5.3560 n4        1 MOL     -0.262944
    149 H67        -6.3320   -1.3080    1.3750 hn        1 MOL      0.187721
    150 H68        -7.8120    1.2040    1.6000 h1        1 MOL      0.042563
    151 H69        -6.3080    1.6670    3.3980 hc        1 MOL      0.047801
    152 H70        -5.2380    0.3870    2.9540 hc        1 MOL      0.047801
    153 H71        -6.3680   -0.3270    4.8640 hc        1 MOL      0.024019
    154 H72        -6.7070   -1.3950    3.5090 hc        1 MOL      0.024019
    155 H73        -8.8640   -0.4490    3.1230 hc        1 MOL     -0.026316
    156 H74        -8.6730    0.8540    4.3110 hc        1 MOL     -0.026316
    157 H75        -8.3930   -0.9790    6.1140 hx        1 MOL      0.093520
    158 H76        -8.5960   -2.2220    4.8090 hx        1 MOL      0.093520
    159 H77       -10.5340   -0.3660    5.7790 hn        1 MOL      0.254337
    160 H78       -10.8240   -1.3450    4.4940 hn        1 MOL      0.254337
    161 H79       -10.5640   -2.0610    5.9150 hn        1 MOL      0.254337
    162 N14        -4.8960    1.4240    0.1890 n         1 MOL      0.076214
    163 C49        -3.9860    2.2290   -0.7060 c3        1 MOL     -0.377222
    164 C50        -4.5800    2.3450   -2.1470 c         1 MOL      0.548215
    165 O22        -4.1470    3.2000   -2.8960 o         1 MOL     -0.573792
    166 C51        -2.6280    1.5300   -0.8330 c3        1 MOL      0.429437
    167 C52        -1.8460    1.6800    0.5650 c3        1 MOL     -0.280950
    168 C53        -0.4920    0.9320    0.6240 c         1 MOL      0.813734
    169 O23         0.5460    1.5970    0.7880 o         1 MOL     -0.779819
    170 O24        -0.4610   -0.3150    0.5210 o         1 MOL     -0.779819
    171 H80        -4.5800    0.4960    0.4390 hn        1 MOL     -0.038355
    172 H81        -3.7980    3.2060   -0.2620 h1        1 MOL      0.176830
    173 H82        -2.1300    1.8930   -1.7340 hc        1 MOL     -0.079847
    174 H83        -2.7180    0.4670   -1.0120 hc        1 MOL     -0.079847
    175 H84        -2.4660    1.2300    1.3360 hc        1 MOL      0.033124
    176 H85        -1.7760    2.7270    0.8330 hc        1 MOL      0.033124
    177 N15        -5.5800    1.6140   -2.5920 n         1 MOL     -0.085288
    178 C54        -6.3550    1.8910   -3.7580 c3        1 MOL     -0.341123
    179 H86        -6.8420    0.9750   -4.0960 h1        1 MOL      0.122297
    180 H87        -7.1120    2.6390   -3.5230 h1        1 MOL      0.122297
    181 H88        -5.7040    2.2680   -4.5470 h1        1 MOL      0.122297
    182 H89        -5.7540    0.7150   -2.1510 hn        1 MOL      0.150284
    183 Ca1         1.9640   -0.7720    1.4500 Ca        1 MOL      1.765261
    184 O25         1.1540   -3.4150    1.8190 oh        1 MOL     -0.881882
    185 H90         1.6260   -3.9450    1.1760 ho        1 MOL      0.430389
    186 H91         1.6610   -3.5120    2.6280 ho        1 MOL      0.430389
    187 O26         0.5330   -0.9390    3.6720 oh        1 MOL     -0.881882
    188 H92         0.4750   -1.4710    4.4690 ho        1 MOL      0.430389
    189 H93        -0.3520   -0.5700    3.5790 ho        1 MOL      0.430389
@<TRIPOS>BOND
     1    1    2 1   
     2    1    4 1   
     3    1    5 1   
     4    1    6 1   
     5    2    3 2   
     6    2    7 1   
     7    7    8 1   
     8    7   15 1   
     9    8    9 1   
    10    8   11 1   
    11    8   16 1   
    12    9   10 2   
    13    9   19 1   
    14   11   12 1   
    15   11   17 1   
    16   11   18 1   
    17   12   13 1   
    18   12   14 1   
    19   19   20 1   
    20   19   28 1   
    21   20   21 1   
    22   20   23 1   
    23   20   29 1   
    24   21   22 2   
    25   21   41 1   
    26   23   24 1   
    27   23   30 1   
    28   23   31 1   
    29   24   25 1   
    30   24   32 1   
    31   24   33 1   
    32   25   26 1   
    33   25   34 1   
    34   25   35 1   
    35   26   27 1   
    36   26   36 1   
    37   26   37 1   
    38   27   38 1   
    39   27   39 1   
    40   27   40 1   
    41   41   42 1   
    42   41   49 1   
    43   42   43 1   
    44   42   45 1   
    45   42   50 1   
    46   43   44 2   
    47   43   53 1   
    48   45   46 1   
    49   45   51 1   
    50   45   52 1   
    51   46   47 1   
    52   46   48 1   
    53   53   54 1   
    54   53   57 1   
    55   54   55 1   
    56   54   58 1   
    57   54   59 1   
    58   55   56 2   
    59   55   60 1   
    60   60   61 1   
    61   60   68 1   
    62   61   62 1   
    63   61   64 1   
    64   61   69 1   
    65   62   63 2   
    66   62   72 1   
    67   64   65 1   
    68   64   70 1   
    69   64   71 1   
    70   65   66 1   
    71   65   67 1   
    72   72   73 1   
    73   72   76 1   
    74   73   74 1   
    75   73   77 1   
    76   73   78 1   
    77   74   75 2   
    78   74   79 1   
    79   79   80 1   
    80   79   86 1   
    81   80   81 1   
    82   80   83 1   
    83   80   87 1   
    84   81   82 2   
    85   81   93 1   
    86   83   84 1   
    87   83   85 1   
    88   83   88 1   
    89   84   90 1   
    90   84   91 1   
    91   84   92 1   
    92   85   89 1   
    93   93   94 1   
    94   93  101 1   
    95   94   95 1   
    96   94   97 1   
    97   94  102 1   
    98   95   96 2   
    99   95  112 1   
   100   97   98 1   
   101   97   99 1   
   102   97  103 1   
   103   98  100 1   
   104   98  104 1   
   105   98  105 1   
   106   99  106 1   
   107   99  107 1   
   108   99  108 1   
   109  100  109 1   
   110  100  110 1   
   111  100  111 1   
   112  112  113 1   
   113  112  119 1   
   114  113  114 1   
   115  113  116 1   
   116  113  120 1   
   117  114  115 2   
   118  114  126 1   
   119  116  117 1   
   120  116  118 1   
   121  116  121 1   
   122  117  123 1   
   123  117  124 1   
   124  117  125 1   
   125  118  122 1   
   126  126  127 1   
   127  126  133 1   
   128  127  128 1   
   129  127  130 1   
   130  127  134 1   
   131  128  129 2   
   132  128  140 1   
   133  130  131 1   
   134  130  132 1   
   135  130  135 1   
   136  131  137 1   
   137  131  138 1   
   138  131  139 1   
   139  132  136 1   
   140  140  141 1   
   141  140  149 1   
   142  141  142 1   
   143  141  144 1   
   144  141  150 1   
   145  142  143 2   
   146  142  162 1   
   147  144  145 1   
   148  144  151 1   
   149  144  152 1   
   150  145  146 1   
   151  145  153 1   
   152  145  154 1   
   153  146  147 1   
   154  146  155 1   
   155  146  156 1   
   156  147  148 1   
   157  147  157 1   
   158  147  158 1   
   159  148  159 1   
   160  148  160 1   
   161  148  161 1   
   162  162  163 1   
   163  162  171 1   
   164  163  164 1   
   165  163  166 1   
   166  163  172 1   
   167  164  165 2   
   168  164  177 1   
   169  166  167 1   
   170  166  173 1   
   171  166  174 1   
   172  167  168 1   
   173  167  175 1   
   174  167  176 1   
   175  168  169 1   
   176  168  170 1   
   177  177  178 1   
   178  177  182 1   
   179  178  179 1   
   180  178  180 1   
   181  178  181 1   
   182  184  185 1   
   183  184  186 1   
   184  187  188 1   
   185  187  189 1   
@<TRIPOS>SUBSTRUCTURE
     1 MOL         1 TEMP              0 ****  ****    0 ROOT
