@<TRIPOS>MOLECULE
MOL
  179   176     1     0     0
SMALL
resp


@<TRIPOS>ATOM
      1 C1          1.9640    1.7860    6.0950 c3        1 MOL     -0.287178
      2 C2          1.4570    1.7050    4.6080 c         1 MOL      0.838297
      3 O1          2.2350    1.8870    3.7080 o         1 MOL     -0.611261
      4 H1          3.0490    1.6860    6.1140 hc        1 MOL      0.069063
      5 H2          1.6800    2.7460    6.5240 hc        1 MOL      0.069063
      6 H3          1.5160    0.9810    6.6770 hc        1 MOL      0.069063
      7 N1          0.1420    1.5380    4.3470 n         1 MOL     -0.728579
      8 C3         -0.4740    1.8350    3.0340 c3        1 MOL      0.092694
      9 C4         -0.2890    3.3040    2.6280 c         1 MOL      0.641868
     10 O2         -0.7270    4.1850    3.3630 o         1 MOL     -0.572629
     11 C5         -1.9390    1.3590    3.0650 c3        1 MOL     -0.290242
     12 C6         -2.7790    1.6290    1.7880 c         1 MOL      0.858642
     13 O3         -4.0190    1.3760    1.8760 o         1 MOL     -0.719544
     14 O4         -2.2790    2.0320    0.7630 o         1 MOL     -0.719544
     15 H4         -0.4650    1.4740    5.1530 hn        1 MOL      0.348345
     16 H5          0.1020    1.3460    2.2570 h1        1 MOL      0.054632
     17 H6         -2.5150    1.8720    3.8380 hc        1 MOL      0.081433
     18 H7         -1.9460    0.3140    3.3550 hc        1 MOL      0.081433
     19 N2          0.1780    3.5920    1.3960 n         1 MOL     -0.372649
     20 C7          0.4450    4.8970    0.7280 c3        1 MOL     -0.199561
     21 C8         -0.7030    5.6030    0.0050 c         1 MOL      0.622270
     22 O5         -0.6750    6.8530   -0.0870 o         1 MOL     -0.604309
     23 C9          1.5980    4.7530   -0.3450 c3        1 MOL      0.359837
     24 C10         2.4030    5.9860   -0.8000 c3        1 MOL     -0.023567
     25 C11         3.7630    5.8310   -1.5050 c3        1 MOL      0.038748
     26 C12         4.1740    7.1420   -2.1420 c3        1 MOL      0.154020
     27 N3          5.5680    7.1880   -2.6170 n4        1 MOL     -0.518807
     28 H8          0.5050    2.7860    0.8780 hn        1 MOL      0.214524
     29 H9          0.8130    5.6330    1.4380 h1        1 MOL      0.106543
     30 H10         1.1930    4.2860   -1.2430 hc        1 MOL     -0.033132
     31 H11         2.3390    4.1480    0.1800 hc        1 MOL     -0.033132
     32 H12         2.5700    6.6450    0.0470 hc        1 MOL     -0.026401
     33 H13         1.7160    6.4980   -1.4850 hc        1 MOL     -0.026401
     34 H14         3.7060    5.0200   -2.2280 hc        1 MOL     -0.006197
     35 H15         4.5280    5.5660   -0.7640 hc        1 MOL     -0.006197
     36 H16         3.9800    8.0290   -1.5410 hx        1 MOL      0.057536
     37 H17         3.5000    7.1990   -3.0000 hx        1 MOL      0.057536
     38 H18         5.6570    6.4830   -3.3340 hn        1 MOL      0.369416
     39 H19         5.8750    8.1460   -2.7170 hn        1 MOL      0.369416
     40 H20         6.1910    6.9500   -1.8580 hn        1 MOL      0.369416
     41 N4         -1.7640    4.9190   -0.4280 n         1 MOL     -0.402253
     42 C13        -2.7990    5.3710   -1.2710 c3        1 MOL      0.163967
     43 C14        -4.1300    5.0740   -0.6450 c         1 MOL      0.470607
     44 O6         -5.0630    5.6610   -1.1850 o         1 MOL     -0.553700
     45 C15        -2.6990    4.6510   -2.7160 c3        1 MOL     -0.479775
     46 C16        -2.3540    3.1890   -2.5090 c         1 MOL      0.935510
     47 O7         -1.2390    2.7070   -2.5740 o         1 MOL     -0.817805
     48 O8         -3.2710    2.4300   -2.1550 o         1 MOL     -0.817805
     49 H21        -1.8060    3.9340   -0.2030 hn        1 MOL      0.256172
     50 H22        -2.7690    6.4530   -1.3030 h1        1 MOL      0.086954
     51 H23        -1.8910    5.1020   -3.2750 hc        1 MOL      0.120619
     52 H24        -3.6310    4.7380   -3.2750 hc        1 MOL      0.120619
     53 N5         -4.2630    4.2720    0.4150 n         1 MOL     -0.347796
     54 C17        -5.5580    3.9740    1.0610 c3        1 MOL      0.015648
     55 C18        -6.3820    2.8090    0.4470 c         1 MOL      0.469385
     56 O9         -7.5770    2.6080    0.7340 o         1 MOL     -0.571576
     57 H25        -3.4700    3.7350    0.7510 hn        1 MOL      0.212281
     58 H26        -6.1710    4.8630    1.1070 h1        1 MOL      0.069598
     59 H27        -5.3230    3.7600    2.0990 h1        1 MOL      0.069598
     60 N6         -5.8020    1.9980   -0.4990 n         1 MOL     -0.276736
     61 C19        -6.4610    0.8540   -1.1400 c3        1 MOL     -0.011120
     62 C20        -6.6420   -0.4000   -0.2210 c         1 MOL      0.412836
     63 O10        -7.0550   -1.4310   -0.7400 o         1 MOL     -0.514903
     64 C21        -5.8080    0.5670   -2.4950 c3        1 MOL     -0.442185
     65 C22        -4.5890   -0.3850   -2.3660 c         1 MOL      0.784884
     66 N7         -4.3140   -1.1750   -3.3760 n         1 MOL     -0.785379
     67 O11        -3.9600   -0.5390   -1.3160 o         1 MOL     -0.629387
     68 H28        -4.8220    2.1390   -0.7290 hn        1 MOL      0.273949
     69 H29        -7.4870    1.1310   -1.3780 h1        1 MOL      0.131517
     70 H30        -5.5450    1.5360   -2.9430 hc        1 MOL      0.153215
     71 H31        -6.6240    0.0160   -2.9660 hc        1 MOL      0.153215
     72 H32        -4.9550   -1.0970   -4.1570 hn        1 MOL      0.348271
     73 H33        -3.6280   -1.9130   -3.3000 hn        1 MOL      0.348271
     74 N8         -6.1250   -0.2970    1.0240 n         1 MOL     -0.141983
     75 C23        -6.1310   -1.3530    1.9840 c3        1 MOL     -0.361837
     76 C24        -5.0980   -2.5420    1.7510 c         1 MOL      0.515500
     77 O12        -5.1560   -3.5760    2.5110 o         1 MOL     -0.552269
     78 H34        -5.5000    0.4790    1.1740 hn        1 MOL      0.266344
     79 H35        -7.1270   -1.7600    2.1010 h1        1 MOL      0.156973
     80 H36        -5.7920   -0.8390    2.8840 h1        1 MOL      0.156973
     81 N9         -4.0930   -2.2850    0.8900 n         1 MOL     -0.225539
     82 C25        -2.9770   -3.1570    0.6580 c3        1 MOL      0.665416
     83 C26        -1.6770   -2.5020    0.9670 c         1 MOL      0.120480
     84 O13        -1.6220   -1.2680    0.8810 o         1 MOL     -0.483480
     85 C27        -3.1090   -3.9010   -0.7400 c3        1 MOL     -0.312588
     86 C28        -4.2220   -4.8890   -0.9310 ca        1 MOL      0.117603
     87 C29        -4.3350   -6.0320   -0.0870 ca        1 MOL     -0.197158
     88 C30        -5.0190   -4.7470   -2.0770 ca        1 MOL     -0.197158
     89 C31        -5.2360   -7.0300   -0.4170 ca        1 MOL     -0.242080
     90 C32        -6.0680   -5.6750   -2.2740 ca        1 MOL     -0.242080
     91 C33        -6.1510   -6.8390   -1.4560 ca        1 MOL      0.331726
     92 O14        -7.1690   -7.7510   -1.6490 oh        1 MOL     -0.490678
     93 H37        -4.0520   -1.3090    0.6120 hn        1 MOL      0.055638
     94 H38        -3.0520   -3.9730    1.3830 h1        1 MOL     -0.078097
     95 H39        -2.1660   -4.3420   -1.0410 hc        1 MOL      0.062378
     96 H40        -3.1780   -3.1130   -1.5020 hc        1 MOL      0.062378
     97 H41        -3.6500   -6.1450    0.7360 ha        1 MOL      0.154656
     98 H42        -4.9250   -3.8310   -2.6410 ha        1 MOL      0.154656
     99 H43        -5.4020   -7.8560    0.2640 ha        1 MOL      0.148626
    100 H44        -6.7550   -5.6070   -3.0990 ha        1 MOL      0.148626
    101 H45        -7.7650   -7.5580   -2.3790 ho        1 MOL      0.359553
    102 N10        -0.6530   -3.2960    1.3050 n         1 MOL     -0.410546
    103 C34         0.8080   -2.9620    1.5160 c3        1 MOL     -0.232867
    104 C35         1.6980   -3.8960    0.5660 c         1 MOL      0.594365
    105 O15         1.6000   -5.0910    0.6830 o         1 MOL     -0.533079
    106 C36         1.1770   -3.0770    3.0550 c3        1 MOL      0.227742
    107 C37         0.3150   -2.2540    3.9650 c3        1 MOL      0.079334
    108 C38         2.6630   -2.8720    3.3460 c3        1 MOL     -0.258918
    109 C39         0.4990   -2.7790    5.4490 c3        1 MOL     -0.334665
    110 H46        -0.9100   -4.2650    1.4730 hn        1 MOL      0.304364
    111 H47         0.9980   -1.9350    1.2190 h1        1 MOL      0.167340
    112 H48         1.0620   -4.1270    3.3250 hc        1 MOL      0.009645
    113 H49        -0.7190   -2.2480    3.6140 hc        1 MOL      0.029845
    114 H50         0.6670   -1.2260    3.9980 hc        1 MOL      0.029845
    115 H51         3.2960   -3.5500    2.7660 hc        1 MOL      0.054628
    116 H52         2.9520   -1.8450    3.1100 hc        1 MOL      0.054628
    117 H53         2.9810   -3.0930    4.3710 hc        1 MOL      0.054628
    118 H54         1.5360   -2.6330    5.7480 hc        1 MOL      0.079893
    119 H55        -0.0940   -2.1900    6.1490 hc        1 MOL      0.079893
    120 H56         0.2020   -3.8230    5.4520 hc        1 MOL      0.079893
    121 N11         2.4780   -3.2870   -0.2720 n         1 MOL     -0.438730
    122 C40         3.5570   -3.9260   -1.0420 c3        1 MOL      0.152098
    123 C41         4.9680   -3.6290   -0.4980 c         1 MOL      0.512725
    124 O16         5.2090   -2.9420    0.5310 o         1 MOL     -0.442918
    125 C42         3.3910   -3.6100   -2.4360 c3        1 MOL     -0.106211
    126 O17         3.8600   -2.2830   -2.8100 oh        1 MOL     -0.549773
    127 H57         2.4940   -2.2780   -0.2200 hn        1 MOL      0.322284
    128 H58         3.3180   -4.9900   -0.9510 h1        1 MOL      0.068752
    129 H59         2.3920   -3.8130   -2.8230 h1        1 MOL      0.084354
    130 H60         4.0970   -4.3250   -2.8500 h1        1 MOL      0.084354
    131 H61         3.4360   -2.0990   -3.6480 ho        1 MOL      0.401352
    132 N12         6.0420   -4.2180   -1.0060 n         1 MOL     -0.575733
    133 C43         7.4410   -3.9860   -0.5420 c3        1 MOL      0.250930
    134 C44         7.8990   -2.5840   -0.8660 c         1 MOL      0.313331
    135 O18         8.6730   -1.9560   -0.1050 o         1 MOL     -0.477206
    136 C45         8.3150   -4.9890   -1.2830 c3        1 MOL     -0.496100
    137 H62         5.8490   -4.5970   -1.9230 hn        1 MOL      0.312497
    138 H63         7.4960   -4.0560    0.5460 h1        1 MOL      0.109034
    139 H64         8.3420   -4.8500   -2.3640 hc        1 MOL      0.146851
    140 H65         9.3090   -4.8240   -0.8750 hc        1 MOL      0.146851
    141 H66         8.0340   -6.0210   -1.0490 hc        1 MOL      0.146851
    142 N13         7.4880   -2.0500   -1.9930 n         1 MOL     -0.214414
    143 C46         7.7160   -0.6340   -2.4660 c3        1 MOL      0.071305
    144 C47         7.0790    0.3810   -1.4650 c         1 MOL      0.337086
    145 O19         7.6940    1.4340   -1.1900 o         1 MOL     -0.532406
    146 C48         7.1260   -0.4830   -3.8590 c3        1 MOL     -0.391934
    147 H67         7.1760   -2.7020   -2.6920 hn        1 MOL      0.211765
    148 H68         8.7820   -0.4230   -2.4290 h1        1 MOL      0.106879
    149 H69         7.5640   -1.2660   -4.4750 hc        1 MOL      0.114916
    150 H70         6.0330   -0.5050   -3.8870 hc        1 MOL      0.114916
    151 H71         7.4060    0.4770   -4.3090 hc        1 MOL      0.114916
    152 N14         5.9350    0.1620   -0.7690 n         1 MOL      0.020819
    153 C49         5.2200    0.9220    0.2060 c3        1 MOL     -0.322726
    154 C50         5.7840    0.6070    1.6080 c         1 MOL      0.552594
    155 O20         5.7900    1.4150    2.5370 o         1 MOL     -0.559475
    156 C51         3.7250    0.5070    0.2010 c3        1 MOL      0.391331
    157 C52         3.0430    1.1670   -0.9730 c3        1 MOL      0.069712
    158 C53         1.5460    0.8830   -0.9840 c         1 MOL      0.749136
    159 O21         1.2280    0.1410   -1.9550 o         1 MOL     -0.801297
    160 O22         0.7760    1.2520   -0.1020 o         1 MOL     -0.801297
    161 H72         5.4670   -0.6260   -1.2020 hn        1 MOL      0.143808
    162 H73         5.3420    1.9960    0.0570 h1        1 MOL      0.133208
    163 H74         3.2820    0.8870    1.1140 hc        1 MOL     -0.095870
    164 H75         3.5920   -0.5700    0.2050 hc        1 MOL     -0.095870
    165 H76         3.5030    0.7720   -1.8680 hc        1 MOL     -0.087745
    166 H77         3.2650    2.2410   -0.9780 hc        1 MOL     -0.087745
    167 N15         6.3450   -0.5900    1.8220 n         1 MOL     -0.115763
    168 C54         7.1030   -0.8890    3.0190 c3        1 MOL     -0.372429
    169 H78         8.1660   -0.9030    2.7800 h1        1 MOL      0.138361
    170 H79         6.9100   -0.1240    3.7720 h1        1 MOL      0.138361
    171 H80         6.8040   -1.8630    3.4050 h1        1 MOL      0.138361
    172 H81         6.2950   -1.2690    1.0720 hn        1 MOL      0.099422
    173 Ca1        -1.4790    0.4790   -1.2100 Ca        1 MOL      1.753420
    174 O23        -0.7610   -1.9810   -1.9240 oh        1 MOL     -0.783852
    175 H82         0.1200   -1.6850   -2.1330 ho        1 MOL      0.390265
    176 H83        -0.8140   -2.8620   -2.2930 ho        1 MOL      0.390265
    177 O24        -1.4720   -0.0180   -3.8480 oh        1 MOL     -0.783852
    178 H84        -0.7800   -0.5330   -4.2810 ho        1 MOL      0.390265
    179 H85        -1.5610    0.7600   -4.3950 ho        1 MOL      0.390265
@<TRIPOS>BOND
     1    1    2 1   
     2    1    4 1   
     3    1    5 1   
     4    1    6 1   
     5    2    3 2   
     6    2    7 1   
     7    7    8 1   
     8    7   15 1   
     9    8    9 1   
    10    8   11 1   
    11    8   16 1   
    12    9   10 2   
    13    9   19 1   
    14   11   12 1   
    15   11   17 1   
    16   11   18 1   
    17   12   13 1   
    18   12   14 1   
    19   19   20 1   
    20   19   28 1   
    21   20   21 1   
    22   20   23 1   
    23   20   29 1   
    24   21   22 2   
    25   21   41 1   
    26   23   24 1   
    27   23   30 1   
    28   23   31 1   
    29   24   25 1   
    30   24   32 1   
    31   24   33 1   
    32   25   26 1   
    33   25   34 1   
    34   25   35 1   
    35   26   27 1   
    36   26   36 1   
    37   26   37 1   
    38   27   38 1   
    39   27   39 1   
    40   27   40 1   
    41   41   42 1   
    42   41   49 1   
    43   42   43 1   
    44   42   45 1   
    45   42   50 1   
    46   43   44 2   
    47   43   53 1   
    48   45   46 1   
    49   45   51 1   
    50   45   52 1   
    51   46   47 1   
    52   46   48 1   
    53   53   54 1   
    54   53   57 1   
    55   54   55 1   
    56   54   58 1   
    57   54   59 1   
    58   55   56 2   
    59   55   60 1   
    60   60   61 1   
    61   60   68 1   
    62   61   62 1   
    63   61   64 1   
    64   61   69 1   
    65   62   63 2   
    66   62   74 1   
    67   64   65 1   
    68   64   70 1   
    69   64   71 1   
    70   65   66 1   
    71   65   67 2   
    72   66   72 1   
    73   66   73 1   
    74   74   75 1   
    75   74   78 1   
    76   75   76 1   
    77   75   79 1   
    78   75   80 1   
    79   76   77 2   
    80   76   81 1   
    81   81   82 1   
    82   81   93 1   
    83   82   83 1   
    84   82   85 1   
    85   82   94 1   
    86   83   84 2   
    87   83  102 1   
    88   85   86 1   
    89   85   95 1   
    90   85   96 1   
    91   86   87 ar  
    92   86   88 ar  
    93   87   89 ar  
    94   87   97 1   
    95   88   90 ar  
    96   88   98 1   
    97   89   91 ar  
    98   89   99 1   
    99   90   91 ar  
   100   90  100 1   
   101   91   92 1   
   102   92  101 1   
   103  102  103 1   
   104  102  110 1   
   105  103  104 1   
   106  103  106 1   
   107  103  111 1   
   108  104  105 2   
   109  104  121 1   
   110  106  107 1   
   111  106  108 1   
   112  106  112 1   
   113  107  109 1   
   114  107  113 1   
   115  107  114 1   
   116  108  115 1   
   117  108  116 1   
   118  108  117 1   
   119  109  118 1   
   120  109  119 1   
   121  109  120 1   
   122  121  122 1   
   123  121  127 1   
   124  122  123 1   
   125  122  125 1   
   126  122  128 1   
   127  123  124 2   
   128  123  132 1   
   129  125  126 1   
   130  125  129 1   
   131  125  130 1   
   132  126  131 1   
   133  132  133 1   
   134  132  137 1   
   135  133  134 1   
   136  133  136 1   
   137  133  138 1   
   138  134  135 2   
   139  134  142 1   
   140  136  139 1   
   141  136  140 1   
   142  136  141 1   
   143  142  143 1   
   144  142  147 1   
   145  143  144 1   
   146  143  146 1   
   147  143  148 1   
   148  144  145 2   
   149  144  152 1   
   150  146  149 1   
   151  146  150 1   
   152  146  151 1   
   153  152  153 1   
   154  152  161 1   
   155  153  154 1   
   156  153  156 1   
   157  153  162 1   
   158  154  155 2   
   159  154  167 1   
   160  156  157 1   
   161  156  163 1   
   162  156  164 1   
   163  157  158 1   
   164  157  165 1   
   165  157  166 1   
   166  158  159 1   
   167  158  160 1   
   168  167  168 1   
   169  167  172 1   
   170  168  169 1   
   171  168  170 1   
   172  168  171 1   
   173  174  175 1   
   174  174  176 1   
   175  177  178 1   
   176  177  179 1   
@<TRIPOS>SUBSTRUCTURE
     1 MOL         1 TEMP              0 ****  ****    0 ROOT
