@<TRIPOS>MOLECULE
MOL
  175   173     1     0     0
SMALL
resp


@<TRIPOS>ATOM
      1 C1          0.2860    4.4100    5.4570 c3        1 MOL     -0.325831
      2 C2         -0.4590    4.3630    4.0690 c         1 MOL      0.665935
      3 O1          0.2520    4.5850    3.0430 o         1 MOL     -0.542286
      4 H1         -0.3070    3.8820    6.2040 hc        1 MOL      0.080635
      5 H2          1.2610    3.9310    5.3620 hc        1 MOL      0.080635
      6 H3          0.4180    5.4470    5.7650 hc        1 MOL      0.080635
      7 N1         -1.7730    4.1280    3.9850 n         1 MOL     -0.665057
      8 C3         -2.3640    3.7920    2.6790 c3        1 MOL      0.257898
      9 C4         -2.4400    4.8670    1.6270 c         1 MOL      0.574498
     10 O2         -2.6050    6.0400    1.9200 o         1 MOL     -0.579460
     11 C5         -3.7730    3.1110    2.8500 c3        1 MOL     -0.217708
     12 C6         -4.3670    2.5850    1.5580 c         1 MOL      0.624143
     13 O3         -5.4670    3.0370    1.2410 o         1 MOL     -0.614847
     14 O4         -3.6230    1.9340    0.7620 o         1 MOL     -0.614847
     15 H4         -2.3290    3.9850    4.8180 hn        1 MOL      0.344768
     16 H5         -1.7140    3.0660    2.1900 h1        1 MOL      0.019212
     17 H6         -4.4010    3.8650    3.3290 hc        1 MOL      0.023549
     18 H7         -3.5880    2.3030    3.5540 hc        1 MOL      0.023549
     19 N2         -2.4490    4.4900    0.3280 n         1 MOL     -0.454347
     20 C7         -2.7400    5.4130   -0.8080 c3        1 MOL      0.407275
     21 C8         -3.5720    4.8290   -1.9720 c         1 MOL      0.391543
     22 O5         -3.5250    5.4710   -3.0520 o         1 MOL     -0.547894
     23 C9         -1.3740    6.0320   -1.2010 c3        1 MOL     -0.315633
     24 H8         -2.3020    3.5070    0.1120 hn        1 MOL      0.222880
     25 H9         -3.3400    6.1970   -0.3520 h1        1 MOL     -0.021101
     26 H10        -0.7930    5.2510   -1.6890 hc        1 MOL      0.070351
     27 H11        -1.5090    6.8280   -1.9390 hc        1 MOL      0.070351
     28 H12        -0.9270    6.3740   -0.2710 hc        1 MOL      0.070351
     29 N3         -4.3940    3.7560   -1.8100 n         1 MOL     -0.271032
     30 C10        -5.2640    3.1660   -2.8430 c3        1 MOL     -0.047229
     31 C11        -6.3560    2.2760   -2.3590 c         1 MOL      0.463339
     32 O6         -7.1660    2.0000   -3.2190 o         1 MOL     -0.570034
     33 C12        -4.2960    2.3400   -3.7320 c3        1 MOL     -0.029006
     34 C13        -3.5980    1.1920   -2.9540 c         1 MOL      0.698103
     35 O7         -4.1280    0.4350   -2.1060 o         1 MOL     -0.702115
     36 O8         -2.3770    1.1240   -3.2300 o         1 MOL     -0.702115
     37 H13        -4.5030    3.3010   -0.9070 hn        1 MOL      0.122648
     38 H14        -5.6870    3.9810   -3.4360 h1        1 MOL      0.086701
     39 H15        -3.5710    3.0750   -4.0650 hc        1 MOL      0.022786
     40 H16        -4.7180    1.9800   -4.6680 hc        1 MOL      0.022786
     41 N4         -6.4580    1.8300   -1.1250 n         1 MOL     -0.183513
     42 C14        -7.5520    0.9750   -0.6520 c3        1 MOL     -0.097921
     43 C15        -7.4900   -0.5260   -1.0710 c         1 MOL      0.439555
     44 O9         -8.5880   -1.1130   -1.1700 o         1 MOL     -0.612275
     45 H17        -5.8190    2.1640   -0.4210 hn        1 MOL      0.169484
     46 H18        -8.5600    1.3350   -0.8070 h1        1 MOL      0.071096
     47 H19        -7.4180    0.9300    0.4250 h1        1 MOL      0.071096
     48 N5         -6.3420   -1.0450   -1.3410 n         1 MOL     -0.049973
     49 C16        -6.2310   -2.4460   -1.8740 c3        1 MOL     -0.052301
     50 C17        -6.1800   -3.5610   -0.8690 c         1 MOL      0.447998
     51 O10        -6.3200   -4.7280   -1.2370 o         1 MOL     -0.514639
     52 C18        -5.0250   -2.4720   -2.8700 c3        1 MOL     -0.026453
     53 C19        -3.6140   -2.4520   -2.1990 c         1 MOL      0.542208
     54 N6         -2.5690   -2.3570   -3.0190 n         1 MOL     -0.699078
     55 O11        -3.4090   -2.2620   -1.0060 o         1 MOL     -0.509232
     56 H20        -5.5450   -0.4340   -1.3910 hn        1 MOL      0.068810
     57 H21        -7.1020   -2.7600   -2.4450 h1        1 MOL      0.111321
     58 H22        -5.0320   -1.5720   -3.4750 hc        1 MOL      0.022570
     59 H23        -5.1750   -3.3270   -3.5250 hc        1 MOL      0.022570
     60 H24        -2.7650   -2.1800   -4.0000 hn        1 MOL      0.347756
     61 H25        -1.6410   -2.2320   -2.6470 hn        1 MOL      0.347756
     62 N7         -6.1970   -3.2660    0.4390 n         1 MOL     -0.235378
     63 C20        -6.1600   -4.2390    1.5240 c3        1 MOL     -0.231716
     64 C21        -4.7740   -4.7630    1.8840 c         1 MOL      0.479250
     65 O12        -4.5510   -5.7070    2.6830 o         1 MOL     -0.567667
     66 H26        -6.4330   -2.3380    0.7490 hn        1 MOL      0.216975
     67 H27        -6.7500   -5.0790    1.1720 h1        1 MOL      0.123060
     68 H28        -6.7520   -3.8280    2.3370 h1        1 MOL      0.123060
     69 N8         -3.7550   -4.1090    1.3230 n         1 MOL     -0.299681
     70 C22        -2.3280   -4.5030    1.5530 c3        1 MOL     -0.018076
     71 C23        -1.2730   -3.3780    1.6730 c         1 MOL      0.442842
     72 O13        -1.3670   -2.3290    1.0080 o         1 MOL     -0.503194
     73 C24        -1.7630   -5.4530    0.4830 c3        1 MOL      0.530382
     74 C25        -2.5480   -6.8300    0.3690 c3        1 MOL     -0.571558
     75 O14        -1.9340   -4.9140   -0.8320 oh        1 MOL     -0.569288
     76 H29        -4.0730   -3.4120    0.6700 hn        1 MOL      0.206046
     77 H30        -2.1880   -5.0670    2.4690 h1        1 MOL      0.060328
     78 H31        -0.7130   -5.6710    0.7050 h1        1 MOL     -0.053571
     79 H32        -1.6290   -4.0130   -0.6950 ho        1 MOL      0.304998
     80 H33        -3.5170   -6.6950   -0.1070 hc        1 MOL      0.146710
     81 H34        -1.9990   -7.5190   -0.2710 hc        1 MOL      0.146710
     82 H35        -2.6100   -7.1670    1.4080 hc        1 MOL      0.146710
     83 N9         -0.1690   -3.6160    2.3700 n         1 MOL     -0.444085
     84 C26         0.9570   -2.7290    2.2510 c3        1 MOL      0.019585
     85 C27         1.6990   -2.9400    0.9060 c         1 MOL      0.652628
     86 O15         2.0000   -4.0970    0.6290 o         1 MOL     -0.623903
     87 C28         1.9220   -2.7930    3.5070 c3        1 MOL      0.092216
     88 C29         1.3280   -1.9560    4.6280 c3        1 MOL      0.023900
     89 C30         3.3940   -2.3530    3.1480 c3        1 MOL     -0.202546
     90 C31         2.2290   -1.4940    5.8010 c3        1 MOL     -0.058693
     91 H36         0.0030   -4.4790    2.8740 hn        1 MOL      0.276022
     92 H37         0.6190   -1.6930    2.1620 h1        1 MOL      0.065570
     93 H38         1.9850   -3.8110    3.8890 hc        1 MOL     -0.006935
     94 H39         0.4290   -2.4730    4.9710 hc        1 MOL     -0.016662
     95 H40         0.9650   -1.0040    4.2200 hc        1 MOL     -0.016662
     96 H41         3.9630   -2.4290    4.0750 hc        1 MOL      0.040159
     97 H42         3.7840   -2.9760    2.3430 hc        1 MOL      0.040159
     98 H43         3.2540   -1.3230    2.8190 hc        1 MOL      0.040159
     99 H44         2.9080   -0.7040    5.4930 hc        1 MOL      0.010044
    100 H45         1.6490   -1.2490    6.6930 hc        1 MOL      0.010044
    101 H46         2.8570   -2.3300    6.1160 hc        1 MOL      0.010044
    102 N10         1.9270   -1.8980    0.0970 n         1 MOL     -0.332869
    103 C32         2.7500   -1.9760   -1.1720 c3        1 MOL      0.070846
    104 C33         4.2510   -1.5140   -0.9070 c         1 MOL      0.526675
    105 O16         4.5830   -1.0110    0.1550 o         1 MOL     -0.429302
    106 C34         2.0750   -1.1150   -2.2860 c3        1 MOL     -0.292708
    107 C35         0.5590   -1.3510   -2.3590 c         1 MOL      0.771237
    108 O17        -0.2010   -0.8460   -1.5020 o         1 MOL     -0.667054
    109 O18         0.1680   -2.0450   -3.3070 o         1 MOL     -0.667054
    110 H47         1.4540   -1.0460    0.3460 hn        1 MOL      0.151978
    111 H48         2.7810   -2.9780   -1.5990 h1        1 MOL      0.088195
    112 H49         2.5640   -1.3360   -3.2390 hc        1 MOL      0.064086
    113 H50         2.1680   -0.0810   -1.9400 hc        1 MOL      0.064086
    114 N11         5.1960   -1.6670   -1.7940 n         1 MOL     -0.809625
    115 C36         6.6350   -1.3230   -1.5240 c3        1 MOL      0.686326
    116 C37         6.9350    0.1600   -1.1550 c         1 MOL      0.218131
    117 O19         7.6590    0.3840   -0.1610 o         1 MOL     -0.447220
    118 C38         7.4930   -1.9480   -2.6170 c3        1 MOL     -0.327439
    119 C39         9.0410   -1.8660   -2.2990 ca        1 MOL      0.108081
    120 C40         9.4560   -2.6270   -1.1880 ca        1 MOL     -0.215744
    121 C41         9.8840   -0.9300   -2.8660 ca        1 MOL     -0.215744
    122 C42        10.7350   -2.4940   -0.6800 ca        1 MOL     -0.050257
    123 C43        11.1830   -0.7860   -2.3560 ca        1 MOL     -0.050257
    124 C44        11.6290   -1.5920   -1.3230 ca        1 MOL     -0.143516
    125 H51         4.9370   -2.0300   -2.6960 hn        1 MOL      0.354359
    126 H52         6.9710   -1.8180   -0.6050 h1        1 MOL     -0.017631
    127 H53         7.3000   -1.4240   -3.5620 hc        1 MOL      0.080201
    128 H54         7.2000   -2.9900   -2.6960 hc        1 MOL      0.080201
    129 H55         8.7990   -3.3630   -0.7460 ha        1 MOL      0.134314
    130 H56         9.5170   -0.3090   -3.6750 ha        1 MOL      0.134314
    131 H57        11.0360   -3.0420    0.2090 ha        1 MOL      0.098662
    132 H58        11.8090   -0.0730   -2.8690 ha        1 MOL      0.098662
    133 H59        12.6840   -1.5970   -1.0500 ha        1 MOL      0.096269
    134 N12         6.3110    1.1500   -1.8870 n         1 MOL     -0.132889
    135 C45         6.4460    2.5680   -1.4750 c3        1 MOL      0.106893
    136 C46         5.7190    2.8230   -0.1020 c         1 MOL      0.262367
    137 O20         6.2210    3.6150    0.6880 o         1 MOL     -0.495525
    138 C47         6.0050    3.4340   -2.7170 c3        1 MOL     -0.063055
    139 C48         5.9360    2.3680   -3.8450 c3        1 MOL     -0.064576
    140 C49         5.4720    1.1080   -3.0980 c3        1 MOL     -0.024132
    141 H60         7.4760    2.8070   -1.2470 h1        1 MOL      0.048065
    142 H61         5.0520    3.9240   -2.5270 hc        1 MOL      0.044611
    143 H62         6.7400    4.1640   -3.0310 hc        1 MOL      0.044611
    144 H63         5.1890    2.6090   -4.5990 hc        1 MOL      0.032038
    145 H64         6.9260    2.1390   -4.2450 hc        1 MOL      0.032038
    146 H65         4.4280    1.1350   -2.7940 h1        1 MOL      0.057232
    147 H66         5.7130    0.3300   -3.8170 h1        1 MOL      0.057232
    148 N13         4.6320    2.1340    0.1740 n         1 MOL     -0.040336
    149 C50         3.9510    2.2590    1.4430 c3        1 MOL     -0.177131
    150 C51         4.7040    1.6180    2.6340 c         1 MOL      0.476364
    151 O21         4.6290    2.1670    3.7130 o         1 MOL     -0.543735
    152 C52         2.6280    1.5110    1.2940 c3        1 MOL      0.034968
    153 C53         1.6700    2.1380    0.2030 c3        1 MOL     -0.294266
    154 C54         0.2680    1.6370    0.3130 c         1 MOL      0.708689
    155 O22         0.0100    0.6680    1.0320 o         1 MOL     -0.699952
    156 O23        -0.6270    2.1100   -0.3380 o         1 MOL     -0.699952
    157 H67         4.2420    1.4660   -0.4650 hn        1 MOL      0.086379
    158 H68         3.8040    3.3140    1.6600 h1        1 MOL      0.139543
    159 H69         2.1420    1.7150    2.2460 hc        1 MOL      0.054508
    160 H70         2.8110    0.4510    1.1390 hc        1 MOL      0.054508
    161 H71         2.0160    1.9490   -0.8190 hc        1 MOL      0.108341
    162 H72         1.6530    3.2290    0.2650 hc        1 MOL      0.108341
    163 N14         5.5260    0.5540    2.4010 n         1 MOL     -0.065599
    164 C55         6.4850    0.0220    3.3080 c3        1 MOL     -0.099131
    165 H73         7.4510   -0.0580    2.8090 h1        1 MOL      0.040446
    166 H74         6.5750    0.6810    4.1710 h1        1 MOL      0.040446
    167 H75         6.1640   -0.9660    3.6380 h1        1 MOL      0.040446
    168 H76         5.5340    0.0630    1.5180 hn        1 MOL      0.123253
    169 Ca1        -2.3080   -0.0240   -0.3090 Ca        1 MOL      1.702815
    170 O24        -1.7130    0.0060    2.7750 oh        1 MOL     -0.806169
    171 H77        -0.9890    0.4030    2.2990 ho        1 MOL      0.384857
    172 H78        -1.6500    0.3650    3.6580 ho        1 MOL      0.384857
    173 O25        -4.1650   -0.7060    1.5890 oh        1 MOL     -0.806169
    174 H79        -3.5980   -0.5000    2.3310 ho        1 MOL      0.384857
    175 H80        -4.9860   -0.9790    1.9890 ho        1 MOL      0.384857
@<TRIPOS>BOND
     1    1    2 1   
     2    1    4 1   
     3    1    5 1   
     4    1    6 1   
     5    2    3 2   
     6    2    7 1   
     7    7    8 1   
     8    7   15 1   
     9    8    9 1   
    10    8   11 1   
    11    8   16 1   
    12    9   10 2   
    13    9   19 1   
    14   11   12 1   
    15   11   17 1   
    16   11   18 1   
    17   12   13 1   
    18   12   14 1   
    19   19   20 1   
    20   19   24 1   
    21   20   21 1   
    22   20   23 1   
    23   20   25 1   
    24   21   22 2   
    25   21   29 1   
    26   23   26 1   
    27   23   27 1   
    28   23   28 1   
    29   29   30 1   
    30   29   37 1   
    31   30   31 1   
    32   30   33 1   
    33   30   38 1   
    34   31   32 2   
    35   31   41 1   
    36   33   34 1   
    37   33   39 1   
    38   33   40 1   
    39   34   35 1   
    40   34   36 1   
    41   41   42 1   
    42   41   45 1   
    43   42   43 1   
    44   42   46 1   
    45   42   47 1   
    46   43   44 2   
    47   43   48 1   
    48   48   49 1   
    49   48   56 1   
    50   49   50 1   
    51   49   52 1   
    52   49   57 1   
    53   50   51 2   
    54   50   62 1   
    55   52   53 1   
    56   52   58 1   
    57   52   59 1   
    58   53   54 1   
    59   53   55 2   
    60   54   60 1   
    61   54   61 1   
    62   62   63 1   
    63   62   66 1   
    64   63   64 1   
    65   63   67 1   
    66   63   68 1   
    67   64   65 2   
    68   64   69 1   
    69   69   70 1   
    70   69   76 1   
    71   70   71 1   
    72   70   73 1   
    73   70   77 1   
    74   71   72 2   
    75   71   83 1   
    76   73   74 1   
    77   73   75 1   
    78   73   78 1   
    79   74   80 1   
    80   74   81 1   
    81   74   82 1   
    82   75   79 1   
    83   83   84 1   
    84   83   91 1   
    85   84   85 1   
    86   84   87 1   
    87   84   92 1   
    88   85   86 2   
    89   85  102 1   
    90   87   88 1   
    91   87   89 1   
    92   87   93 1   
    93   88   90 1   
    94   88   94 1   
    95   88   95 1   
    96   89   96 1   
    97   89   97 1   
    98   89   98 1   
    99   90   99 1   
   100   90  100 1   
   101   90  101 1   
   102  102  103 1   
   103  102  110 1   
   104  103  104 1   
   105  103  106 1   
   106  103  111 1   
   107  104  105 2   
   108  104  114 1   
   109  106  107 1   
   110  106  112 1   
   111  106  113 1   
   112  107  108 1   
   113  107  109 1   
   114  114  115 1   
   115  114  125 1   
   116  115  116 1   
   117  115  118 1   
   118  115  126 1   
   119  116  117 2   
   120  116  134 1   
   121  118  119 1   
   122  118  127 1   
   123  118  128 1   
   124  119  120 ar  
   125  119  121 ar  
   126  120  122 ar  
   127  120  129 1   
   128  121  123 ar  
   129  121  130 1   
   130  122  124 ar  
   131  122  131 1   
   132  123  124 ar  
   133  123  132 1   
   134  124  133 1   
   135  134  135 1   
   136  134  140 1   
   137  135  136 1   
   138  135  138 1   
   139  135  141 1   
   140  136  137 2   
   141  136  148 1   
   142  138  139 1   
   143  138  142 1   
   144  138  143 1   
   145  139  140 1   
   146  139  144 1   
   147  139  145 1   
   148  140  146 1   
   149  140  147 1   
   150  148  149 1   
   151  148  157 1   
   152  149  150 1   
   153  149  152 1   
   154  149  158 1   
   155  150  151 2   
   156  150  163 1   
   157  152  153 1   
   158  152  159 1   
   159  152  160 1   
   160  153  154 1   
   161  153  161 1   
   162  153  162 1   
   163  154  155 1   
   164  154  156 1   
   165  163  164 1   
   166  163  168 1   
   167  164  165 1   
   168  164  166 1   
   169  164  167 1   
   170  170  171 1   
   171  170  172 1   
   172  173  174 1   
   173  173  175 1   
@<TRIPOS>SUBSTRUCTURE
     1 MOL         1 TEMP              0 ****  ****    0 ROOT
