@<TRIPOS>MOLECULE
MOL
  189   185     1     0     0
SMALL
resp


@<TRIPOS>ATOM
      1 C1         -0.2250    1.9410    5.9180 c3        1 MOL     -0.200630
      2 C2         -0.7970    2.0350    4.4790 c         1 MOL      0.649988
      3 O1         -0.0990    2.3930    3.5090 o         1 MOL     -0.643445
      4 H1         -0.3240    0.9180    6.2820 hc        1 MOL      0.061033
      5 H2          0.8280    2.2220    5.9100 hc        1 MOL      0.061033
      6 H3         -0.7760    2.6140    6.5740 hc        1 MOL      0.061033
      7 N1         -2.0710    1.7340    4.1770 n         1 MOL     -0.554654
      8 C3         -2.5600    1.5060    2.7640 c3        1 MOL      0.177350
      9 C4         -3.0650    2.8530    2.3030 c         1 MOL      0.416870
     10 O2         -4.2740    3.0960    2.3610 o         1 MOL     -0.491238
     11 C5         -3.6110    0.3370    2.7810 c3        1 MOL     -0.348322
     12 C6         -4.3530    0.0060    1.4520 c         1 MOL      0.725330
     13 O3         -3.9180    0.3810    0.3440 o         1 MOL     -0.653318
     14 O4         -5.3730   -0.6280    1.5370 o         1 MOL     -0.653318
     15 H4         -2.5850    1.4460    5.0020 hn        1 MOL      0.300556
     16 H5         -1.7090    1.2530    2.1410 h1        1 MOL      0.090325
     17 H6         -4.4040    0.6730    3.4490 hc        1 MOL      0.102854
     18 H7         -3.1050   -0.4930    3.2620 hc        1 MOL      0.102854
     19 N2         -2.1950    3.6420    1.7130 n         1 MOL     -0.257158
     20 C7         -2.3690    5.0180    1.2800 c3        1 MOL     -0.077160
     21 C8         -3.0340    5.1890   -0.1040 c         1 MOL      0.584900
     22 O5         -3.0420    6.2740   -0.6870 o         1 MOL     -0.582811
     23 C9         -1.0860    5.7570    1.4220 c3        1 MOL     -0.198319
     24 C10         0.2480    5.2490    0.8370 c3        1 MOL      0.127408
     25 C11         1.3770    6.2630    1.2260 c3        1 MOL      0.013886
     26 C12         2.7330    5.7280    0.6490 c3        1 MOL     -0.113725
     27 N3          2.7700    5.8040   -0.8420 n4        1 MOL     -0.333497
     28 H8         -1.2650    3.2490    1.6470 hn        1 MOL      0.278653
     29 H9         -3.0760    5.5230    1.9430 h1        1 MOL      0.125081
     30 H10        -0.8820    5.9120    2.4840 hc        1 MOL      0.065580
     31 H11        -1.3550    6.7890    1.1920 hc        1 MOL      0.065580
     32 H12         0.0400    5.1450   -0.2280 hc        1 MOL      0.004028
     33 H13         0.4160    4.2730    1.2740 hc        1 MOL      0.004028
     34 H14         1.4250    6.3600    2.3110 hc        1 MOL      0.038164
     35 H15         1.1470    7.2270    0.7780 hc        1 MOL      0.038164
     36 H16         2.8900    4.6990    0.9800 hx        1 MOL      0.128214
     37 H17         3.5730    6.2480    1.1190 hx        1 MOL      0.128214
     38 H18         2.9380    6.7430   -1.1840 hn        1 MOL      0.318794
     39 H19         3.6020    5.3140   -1.1430 hn        1 MOL      0.318794
     40 H20         2.0110    5.3160   -1.2870 hn        1 MOL      0.318794
     41 N4         -3.7830    4.2110   -0.5160 n         1 MOL     -0.268319
     42 C13        -4.7210    4.1760   -1.6820 c3        1 MOL     -0.087457
     43 C14        -5.8090    3.1440   -1.4630 c         1 MOL      0.506216
     44 O6         -6.5710    2.8790   -2.3360 o         1 MOL     -0.520904
     45 C15        -4.0730    4.2320   -3.0730 c3        1 MOL      0.013423
     46 C16        -3.0970    3.0350   -3.3360 c         1 MOL      0.649415
     47 O7         -3.0850    2.0910   -2.5460 o         1 MOL     -0.676513
     48 O8         -2.4850    2.9910   -4.4250 o         1 MOL     -0.676513
     49 H21        -3.6950    3.4380    0.1270 hn        1 MOL      0.050251
     50 H22        -5.2540    5.1250   -1.5800 h1        1 MOL      0.097237
     51 H23        -3.4800    5.1470   -3.0200 hc        1 MOL      0.015605
     52 H24        -4.8260    4.3800   -3.8490 hc        1 MOL      0.015605
     53 N5         -5.9320    2.6180   -0.2870 n         1 MOL     -0.191180
     54 C17        -7.0900    1.9550    0.1730 c3        1 MOL     -0.075808
     55 C18        -7.5670    0.7300   -0.6360 c         1 MOL      0.369303
     56 O9         -8.8190    0.4670   -0.7360 o         1 MOL     -0.568158
     57 H25        -5.1830    2.6390    0.4070 hn        1 MOL      0.131417
     58 H26        -7.9190    2.6500    0.3070 h1        1 MOL      0.083818
     59 H27        -6.8480    1.5510    1.1560 h1        1 MOL      0.083818
     60 N6         -6.6750   -0.0120   -1.2460 n         1 MOL     -0.010198
     61 C19        -7.0000   -1.1770   -2.0550 c3        1 MOL     -0.141637
     62 C20        -7.0950   -2.4790   -1.1790 c         1 MOL      0.408023
     63 O10        -7.4240   -3.5780   -1.6620 o         1 MOL     -0.516993
     64 C21        -6.0380   -1.3640   -3.2690 c3        1 MOL     -0.115972
     65 C22        -4.5420   -1.2560   -2.8950 c         1 MOL      0.475016
     66 O11        -3.7680   -0.5950   -3.6560 o         1 MOL     -0.600814
     67 O12        -4.0920   -1.7970   -1.8790 o         1 MOL     -0.600814
     68 H28        -5.7190    0.2970   -1.1500 hn        1 MOL      0.169022
     69 H29        -7.9910   -1.0750   -2.4980 h1        1 MOL      0.134956
     70 H30        -6.2810   -0.6950   -4.0840 hc        1 MOL      0.066054
     71 H31        -6.2700   -2.3670   -3.6250 hc        1 MOL      0.066054
     72 N7         -6.7550   -2.3530    0.0750 n         1 MOL     -0.212205
     73 C23        -6.6940   -3.4870    1.0080 c3        1 MOL     -0.047120
     74 C24        -5.4270   -4.2200    1.1180 c         1 MOL      0.578247
     75 O13        -5.3470   -5.3300    1.6650 o         1 MOL     -0.620406
     76 H32        -6.3530   -1.4680    0.3550 hn        1 MOL      0.216122
     77 H33        -7.4970   -4.2120    0.8490 h1        1 MOL      0.063364
     78 H34        -6.8830   -3.0500    1.9840 h1        1 MOL      0.063364
     79 N8         -4.3740   -3.6530    0.6490 n         1 MOL     -0.326118
     80 C25        -3.0750   -4.2420    0.4020 c3        1 MOL      0.039776
     81 C26        -2.0090   -3.2730    0.5210 c         1 MOL      0.578117
     82 O14        -2.2100   -2.1320    0.0670 o         1 MOL     -0.609895
     83 C27        -2.9670   -4.9930   -0.9570 c3        1 MOL      0.687067
     84 C28        -3.3000   -6.4920   -0.7320 c3        1 MOL     -0.442528
     85 O15        -3.8270   -4.4320   -1.9660 oh        1 MOL     -0.761093
     86 H35        -4.5120   -2.7020    0.3410 hn        1 MOL      0.224194
     87 H36        -2.9990   -4.9950    1.1860 h1        1 MOL      0.011471
     88 H37        -1.9380   -5.0480   -1.3110 h1        1 MOL     -0.126723
     89 H38        -3.9010   -3.4820   -1.8780 ho        1 MOL      0.494760
     90 H39        -4.2410   -6.5530   -0.1960 hc        1 MOL      0.099645
     91 H40        -3.4160   -6.8990   -1.7450 hc        1 MOL      0.099645
     92 H41        -2.4070   -6.8660   -0.2310 hc        1 MOL      0.099645
     93 N9         -0.8770   -3.7740    1.0880 n         1 MOL     -0.653053
     94 C29         0.2990   -3.0140    1.4500 c3        1 MOL     -0.008846
     95 C30         1.4440   -3.4790    0.5700 c         1 MOL      0.548898
     96 O16         1.7610   -4.6650    0.5870 o         1 MOL     -0.543059
     97 C31         0.5640   -3.1900    2.9930 c3        1 MOL      0.164257
     98 C32        -0.6140   -2.8270    3.8650 c3        1 MOL      0.108938
     99 C33         1.8470   -2.4290    3.4100 c3        1 MOL     -0.303720
    100 C34        -0.5940   -3.3050    5.3540 c3        1 MOL     -0.295980
    101 H42        -0.8820   -4.7600    1.3050 hn        1 MOL      0.333383
    102 H43         0.1390   -1.9510    1.2940 h1        1 MOL      0.128544
    103 H44         0.7550   -4.2480    3.1890 hc        1 MOL      0.001254
    104 H45        -1.5540   -3.2210    3.4780 hc        1 MOL     -0.006218
    105 H46        -0.8760   -1.7680    3.7830 hc        1 MOL     -0.006218
    106 H47         2.6890   -2.7960    2.8320 hc        1 MOL      0.064312
    107 H48         1.5970   -1.3800    3.2390 hc        1 MOL      0.064312
    108 H49         2.1430   -2.6280    4.4430 hc        1 MOL      0.064312
    109 H50         0.1920   -2.8350    5.9440 hc        1 MOL      0.074203
    110 H51        -1.5680   -3.0730    5.7770 hc        1 MOL      0.074203
    111 H52        -0.4450   -4.3790    5.3240 hc        1 MOL      0.074203
    112 N10         2.0360   -2.5570   -0.2400 n         1 MOL     -0.204932
    113 C35         3.2850   -2.7120   -1.0220 c3        1 MOL     -0.282646
    114 C36         4.5490   -2.6860   -0.1590 c         1 MOL      0.494739
    115 O17         4.4960   -2.1690    0.9830 o         1 MOL     -0.432539
    116 C37         3.4180   -1.7440   -2.1910 c3        1 MOL      0.217756
    117 C38         2.2990   -1.9540   -3.2190 c3        1 MOL     -0.381164
    118 O18         3.4220   -0.4280   -1.7230 oh        1 MOL     -0.606582
    119 H53         1.5520   -1.6710   -0.3050 hn        1 MOL      0.217583
    120 H54         3.2190   -3.7170   -1.4390 h1        1 MOL      0.132094
    121 H55         4.3600   -1.7530   -2.7360 h1        1 MOL      0.068588
    122 H56         2.5590   -0.2150   -1.3760 ho        1 MOL      0.468112
    123 H57         2.3600   -2.9600   -3.6280 hc        1 MOL      0.118625
    124 H58         1.3250   -1.7450   -2.7870 hc        1 MOL      0.118625
    125 H59         2.4920   -1.2260   -4.0140 hc        1 MOL      0.118625
    126 N11         5.6860   -3.0670   -0.6900 n         1 MOL     -0.364691
    127 C39         6.9700   -2.8450    0.0380 c3        1 MOL      0.046514
    128 C40         7.2690   -1.4120    0.4100 c         1 MOL      0.164429
    129 O19         7.6460   -1.1610    1.5680 o         1 MOL     -0.469557
    130 C41         8.1850   -3.3040   -0.8320 c3        1 MOL      0.121797
    131 C42         8.3030   -4.8660   -1.0200 c3        1 MOL     -0.299625
    132 O20         8.1500   -2.8000   -2.1640 oh        1 MOL     -0.619056
    133 H60         5.7260   -3.3820   -1.6460 hn        1 MOL      0.295689
    134 H61         6.8970   -3.2780    1.0400 h1        1 MOL      0.127152
    135 H62         9.0980   -3.0700   -0.2890 h1        1 MOL      0.084069
    136 H63         8.8650   -3.3160   -2.5370 ho        1 MOL      0.413466
    137 H64         7.3220   -5.2080   -1.3410 hc        1 MOL      0.093705
    138 H65         9.1620   -5.2470   -1.5580 hc        1 MOL      0.093705
    139 H66         8.4740   -5.2870   -0.0290 hc        1 MOL      0.093705
    140 N12         6.9460   -0.4690   -0.4730 n         1 MOL      0.041433
    141 C43         7.1940    0.9820   -0.2120 c3        1 MOL      0.100336
    142 C44         6.1370    1.6100    0.6460 c         1 MOL      0.436957
    143 O21         6.3850    2.6300    1.2630 o         1 MOL     -0.545302
    144 C45         7.5660    1.7390   -1.5450 c3        1 MOL     -0.491855
    145 C46         9.0120    1.5830   -2.0180 c3        1 MOL      0.208385
    146 C47         9.1730    1.8340   -3.4850 c3        1 MOL     -0.029752
    147 C48        10.3960    1.1900   -4.0570 c3        1 MOL     -0.044741
    148 N13        11.7370    1.8780   -3.7650 n4        1 MOL     -0.264082
    149 H67         6.8170   -0.8710   -1.3890 hn        1 MOL      0.193185
    150 H68         8.1190    1.0270    0.3670 h1        1 MOL      0.080849
    151 H69         7.4690    2.8050   -1.3510 hc        1 MOL      0.130175
    152 H70         6.8420    1.4830   -2.3270 hc        1 MOL      0.130175
    153 H71         9.3190    0.5730   -1.7590 hc        1 MOL     -0.021980
    154 H72         9.7510    2.1800   -1.4820 hc        1 MOL     -0.021980
    155 H73         9.2380    2.9220   -3.6210 hc        1 MOL      0.054642
    156 H74         8.2900    1.5150   -4.0330 hc        1 MOL      0.054642
    157 H75        10.1050    1.0990   -5.0960 hx        1 MOL      0.096307
    158 H76        10.4730    0.1950   -3.6270 hx        1 MOL      0.096307
    159 H77        12.5860    1.3500   -3.9460 hn        1 MOL      0.257126
    160 H78        11.8060    2.6580   -4.4040 hn        1 MOL      0.257126
    161 H79        11.8570    2.1430   -2.7940 hn        1 MOL      0.257126
    162 N14         4.9400    1.0120    0.8010 n         1 MOL     -0.055824
    163 C49         3.9440    1.4250    1.7770 c3        1 MOL     -0.184605
    164 C50         4.3930    1.1120    3.2100 c         1 MOL      0.675894
    165 O22         4.4600    1.9940    4.0000 o         1 MOL     -0.535364
    166 C51         2.5810    0.8250    1.4320 c3        1 MOL      0.295287
    167 C52         1.8560    1.5580    0.3040 c3        1 MOL      0.198640
    168 C53         0.6280    0.9040   -0.3380 c         1 MOL      0.750192
    169 O23        -0.4840    1.4020   -0.2050 o         1 MOL     -0.841146
    170 O24         0.6810   -0.1520   -0.9920 o         1 MOL     -0.841146
    171 H80         4.8110    0.1320    0.3290 hn        1 MOL     -0.112724
    172 H81         3.8840    2.5170    1.7770 h1        1 MOL      0.043596
    173 H82         1.9570    0.8850    2.3170 hc        1 MOL     -0.077022
    174 H83         2.4730   -0.2490    1.2770 hc        1 MOL     -0.077022
    175 H84         2.5240    1.6770   -0.5460 hc        1 MOL     -0.113092
    176 H85         1.7540    2.5900    0.6190 hc        1 MOL     -0.113092
    177 N15         4.6880   -0.1880    3.4860 n         1 MOL     -0.414145
    178 C54         5.4060   -0.5480    4.7430 c3        1 MOL     -0.203307
    179 H86         5.0460   -1.5130    5.1020 h1        1 MOL      0.100790
    180 H87         6.4770   -0.6110    4.5450 h1        1 MOL      0.100790
    181 H88         5.2200    0.2130    5.4990 h1        1 MOL      0.100790
    182 H89         4.7610   -0.9040    2.7760 hn        1 MOL      0.332444
    183 Ca1        -2.0810   -0.1120   -1.6440 Ca        1 MOL      1.750609
    184 O25        -0.3760    0.8620   -3.9440 oh        1 MOL     -0.767657
    185 H90         0.3790    1.4170   -3.7420 ho        1 MOL      0.368645
    186 H91        -1.1160    1.4590   -3.9380 ho        1 MOL      0.368645
    187 O26        -1.3530   -2.3840   -3.0570 oh        1 MOL     -0.767657
    188 H92        -1.3840   -3.2900   -2.7440 ho        1 MOL      0.368645
    189 H93        -1.4280   -2.4580   -4.0110 ho        1 MOL      0.368645
@<TRIPOS>BOND
     1    1    2 1   
     2    1    4 1   
     3    1    5 1   
     4    1    6 1   
     5    2    3 2   
     6    2    7 1   
     7    7    8 1   
     8    7   15 1   
     9    8    9 1   
    10    8   11 1   
    11    8   16 1   
    12    9   10 2   
    13    9   19 1   
    14   11   12 1   
    15   11   17 1   
    16   11   18 1   
    17   12   13 1   
    18   12   14 1   
    19   19   20 1   
    20   19   28 1   
    21   20   21 1   
    22   20   23 1   
    23   20   29 1   
    24   21   22 2   
    25   21   41 1   
    26   23   24 1   
    27   23   30 1   
    28   23   31 1   
    29   24   25 1   
    30   24   32 1   
    31   24   33 1   
    32   25   26 1   
    33   25   34 1   
    34   25   35 1   
    35   26   27 1   
    36   26   36 1   
    37   26   37 1   
    38   27   38 1   
    39   27   39 1   
    40   27   40 1   
    41   41   42 1   
    42   41   49 1   
    43   42   43 1   
    44   42   45 1   
    45   42   50 1   
    46   43   44 2   
    47   43   53 1   
    48   45   46 1   
    49   45   51 1   
    50   45   52 1   
    51   46   47 1   
    52   46   48 1   
    53   53   54 1   
    54   53   57 1   
    55   54   55 1   
    56   54   58 1   
    57   54   59 1   
    58   55   56 2   
    59   55   60 1   
    60   60   61 1   
    61   60   68 1   
    62   61   62 1   
    63   61   64 1   
    64   61   69 1   
    65   62   63 2   
    66   62   72 1   
    67   64   65 1   
    68   64   70 1   
    69   64   71 1   
    70   65   66 1   
    71   65   67 1   
    72   72   73 1   
    73   72   76 1   
    74   73   74 1   
    75   73   77 1   
    76   73   78 1   
    77   74   75 2   
    78   74   79 1   
    79   79   80 1   
    80   79   86 1   
    81   80   81 1   
    82   80   83 1   
    83   80   87 1   
    84   81   82 2   
    85   81   93 1   
    86   83   84 1   
    87   83   85 1   
    88   83   88 1   
    89   84   90 1   
    90   84   91 1   
    91   84   92 1   
    92   85   89 1   
    93   93   94 1   
    94   93  101 1   
    95   94   95 1   
    96   94   97 1   
    97   94  102 1   
    98   95   96 2   
    99   95  112 1   
   100   97   98 1   
   101   97   99 1   
   102   97  103 1   
   103   98  100 1   
   104   98  104 1   
   105   98  105 1   
   106   99  106 1   
   107   99  107 1   
   108   99  108 1   
   109  100  109 1   
   110  100  110 1   
   111  100  111 1   
   112  112  113 1   
   113  112  119 1   
   114  113  114 1   
   115  113  116 1   
   116  113  120 1   
   117  114  115 2   
   118  114  126 1   
   119  116  117 1   
   120  116  118 1   
   121  116  121 1   
   122  117  123 1   
   123  117  124 1   
   124  117  125 1   
   125  118  122 1   
   126  126  127 1   
   127  126  133 1   
   128  127  128 1   
   129  127  130 1   
   130  127  134 1   
   131  128  129 2   
   132  128  140 1   
   133  130  131 1   
   134  130  132 1   
   135  130  135 1   
   136  131  137 1   
   137  131  138 1   
   138  131  139 1   
   139  132  136 1   
   140  140  141 1   
   141  140  149 1   
   142  141  142 1   
   143  141  144 1   
   144  141  150 1   
   145  142  143 2   
   146  142  162 1   
   147  144  145 1   
   148  144  151 1   
   149  144  152 1   
   150  145  146 1   
   151  145  153 1   
   152  145  154 1   
   153  146  147 1   
   154  146  155 1   
   155  146  156 1   
   156  147  148 1   
   157  147  157 1   
   158  147  158 1   
   159  148  159 1   
   160  148  160 1   
   161  148  161 1   
   162  162  163 1   
   163  162  171 1   
   164  163  164 1   
   165  163  166 1   
   166  163  172 1   
   167  164  165 2   
   168  164  177 1   
   169  166  167 1   
   170  166  173 1   
   171  166  174 1   
   172  167  168 1   
   173  167  175 1   
   174  167  176 1   
   175  168  169 1   
   176  168  170 1   
   177  177  178 1   
   178  177  182 1   
   179  178  179 1   
   180  178  180 1   
   181  178  181 1   
   182  184  185 1   
   183  184  186 1   
   184  187  188 1   
   185  187  189 1   
@<TRIPOS>SUBSTRUCTURE
     1 MOL         1 TEMP              0 ****  ****    0 ROOT
