@<TRIPOS>MOLECULE
MOL
  189   185     1     0     0
SMALL
resp


@<TRIPOS>ATOM
      1 C1          0.1940   -3.6930    6.2240 c3        1 MOL     -0.440503
      2 C2          0.8020   -3.2480    4.8800 c         1 MOL      0.783883
      3 O1          0.7890   -2.0240    4.7030 o         1 MOL     -0.622851
      4 H1          0.9910   -4.0120    6.8960 hc        1 MOL      0.109858
      5 H2         -0.3470   -2.8600    6.6730 hc        1 MOL      0.109858
      6 H3         -0.4920   -4.5240    6.0560 hc        1 MOL      0.109858
      7 N1          1.1160   -4.1600    3.9820 n         1 MOL     -0.679902
      8 C3          1.6560   -3.8380    2.7090 c3        1 MOL      0.423957
      9 C4          1.3730   -4.9930    1.7360 c         1 MOL      0.421814
     10 O2          1.4300   -6.1620    2.0960 o         1 MOL     -0.592751
     11 C5          3.2510   -3.5960    2.8730 c3        1 MOL     -0.336316
     12 C6          3.9100   -2.7080    1.7820 c         1 MOL      0.788156
     13 O3          5.0800   -2.2630    1.9690 o         1 MOL     -0.697049
     14 O4          3.2300   -2.3740    0.7930 o         1 MOL     -0.697049
     15 H4          1.1370   -5.1170    4.2900 hn        1 MOL      0.323634
     16 H5          1.2860   -2.8680    2.3700 h1        1 MOL     -0.029432
     17 H6          3.7490   -4.5630    2.8420 hc        1 MOL      0.056427
     18 H7          3.3900   -3.0550    3.8090 hc        1 MOL      0.056427
     19 N2          1.1660   -4.6140    0.4840 n         1 MOL      0.004871
     20 C7          0.8540   -5.5110   -0.6700 c3        1 MOL     -0.055956
     21 C8          1.9580   -5.3310   -1.6940 c         1 MOL      0.485347
     22 O5          2.7080   -6.2670   -1.9980 o         1 MOL     -0.587965
     23 C9         -0.5360   -5.1900   -1.2210 c3        1 MOL      0.224606
     24 C10        -1.6790   -5.3290   -0.2240 c3        1 MOL      0.130655
     25 C11        -0.8390   -6.0020   -2.5030 c3        1 MOL     -0.235449
     26 C12        -3.0010   -4.5390   -0.5040 c3        1 MOL     -0.276425
     27 H8          1.1760   -3.6340    0.2500 hn        1 MOL     -0.135683
     28 H9          0.8880   -6.5650   -0.3980 h1        1 MOL      0.056079
     29 H10        -0.5090   -4.1060   -1.4070 hc        1 MOL     -0.001127
     30 H11        -1.3420   -4.9950    0.7640 hc        1 MOL     -0.046276
     31 H12        -1.8000   -6.3990   -0.0360 hc        1 MOL     -0.046276
     32 H13        -1.9030   -6.2090   -2.5080 hc        1 MOL      0.037906
     33 H14        -0.5090   -5.4800   -3.4040 hc        1 MOL      0.037906
     34 H15        -0.3540   -6.9670   -2.4060 hc        1 MOL      0.037906
     35 H16        -2.7410   -3.4890   -0.6310 hc        1 MOL      0.063325
     36 H17        -3.4670   -4.8020   -1.4550 hc        1 MOL      0.063325
     37 H18        -3.6940   -4.7810    0.2900 hc        1 MOL      0.063325
     38 N3          2.2500   -4.1340   -2.2440 n         1 MOL     -0.270403
     39 C13         3.3000   -3.9680   -3.3560 c3        1 MOL     -0.060433
     40 C14         4.7440   -3.8150   -2.7430 c         1 MOL      0.458042
     41 O6          5.7100   -3.6820   -3.4890 o         1 MOL     -0.561574
     42 C15         3.0110   -2.7420   -4.2100 c3        1 MOL     -0.163653
     43 C16         2.4890   -1.5130   -3.4440 c         1 MOL      0.660170
     44 O7          2.9210   -1.2780   -2.2940 o         1 MOL     -0.678945
     45 O8          1.4980   -0.8720   -3.9660 o         1 MOL     -0.678945
     46 H19         1.7580   -3.3340   -1.8730 hn        1 MOL      0.212333
     47 H20         3.2230   -4.8660   -3.9760 h1        1 MOL      0.118577
     48 H21         2.4830   -2.9240   -5.1410 hc        1 MOL      0.052915
     49 H22         3.9820   -2.4260   -4.5970 hc        1 MOL      0.052915
     50 N4          4.8240   -3.5870   -1.4000 n         1 MOL     -0.250947
     51 C17         6.1770   -3.2980   -0.7960 c3        1 MOL     -0.219008
     52 C18         6.7710   -1.8800   -0.9990 c         1 MOL      0.510241
     53 O9          7.9000   -1.6390   -0.6800 o         1 MOL     -0.593689
     54 H23         3.9620   -3.6270   -0.8790 hn        1 MOL      0.217007
     55 H24         6.9110   -3.9800   -1.2240 h1        1 MOL      0.120404
     56 H25         6.2080   -3.5300    0.2680 h1        1 MOL      0.120404
     57 N5          6.0960   -0.9160   -1.6900 n         1 MOL     -0.086957
     58 C19         6.6200    0.2230   -2.3980 c3        1 MOL      0.111315
     59 C20         7.2530    1.2350   -1.3520 c         1 MOL      0.471965
     60 O10         8.1610    1.8460   -1.7250 o         1 MOL     -0.572027
     61 C21         5.6030    0.9620   -3.2700 c3        1 MOL     -0.313275
     62 C22         4.3060    1.4660   -2.5500 c         1 MOL      0.799045
     63 O11         4.1140    1.3670   -1.3250 o         1 MOL     -0.675755
     64 O12         3.4930    2.0460   -3.2990 o         1 MOL     -0.675755
     65 H26         5.1010   -1.0110   -1.8000 hn        1 MOL      0.099724
     66 H27         7.3740   -0.2140   -3.0490 h1        1 MOL      0.030270
     67 H28         5.2770    0.2490   -4.0370 hc        1 MOL      0.078573
     68 H29         6.0610    1.8500   -3.6870 hc        1 MOL      0.078573
     69 N6          6.6710    1.4320   -0.1420 n         1 MOL     -0.097696
     70 C23         7.0590    2.2940    0.9860 c3        1 MOL     -0.174885
     71 C24         6.1500    3.4500    1.2280 c         1 MOL      0.585021
     72 O13         6.5050    4.2590    2.0360 o         1 MOL     -0.615940
     73 H30         5.7140    1.1310    0.0280 hn        1 MOL      0.033218
     74 H31         8.0820    2.6640    1.0680 h1        1 MOL      0.082832
     75 H32         6.9300    1.7200    1.9150 h1        1 MOL      0.082832
     76 N7          4.9340    3.4120    0.6590 n         1 MOL     -0.308196
     77 C25         3.7990    4.2910    0.9870 c3        1 MOL      0.298015
     78 C26         2.5870    3.4660    1.3180 c         1 MOL      0.344072
     79 O14         2.4900    2.3510    0.8180 o         1 MOL     -0.448296
     80 C27         3.6510    5.1770   -0.2280 c3        1 MOL     -0.317884
     81 C28         4.9160    5.9130   -0.7340 c3        1 MOL     -0.302967
     82 C29         4.6490    7.0820   -1.7080 c         1 MOL      0.740667
     83 N8          5.6970    7.8400   -2.0720 n         1 MOL     -0.852682
     84 O15         3.5880    7.3890   -2.2130 o         1 MOL     -0.555053
     85 H33         4.7110    2.6240    0.0570 hn        1 MOL      0.143088
     86 H34         4.0430    4.8110    1.9150 h1        1 MOL     -0.033489
     87 H35         2.8420    5.8300    0.0780 hc        1 MOL      0.121540
     88 H36         3.3140    4.5680   -1.0670 hc        1 MOL      0.121540
     89 H37         5.5340    5.2070   -1.2960 hc        1 MOL      0.118501
     90 H38         5.6910    6.2380   -0.0410 hc        1 MOL      0.118501
     91 H39         6.5640    7.8150   -1.5530 hn        1 MOL      0.350893
     92 H40         5.5990    8.6310   -2.7030 hn        1 MOL      0.350893
     93 N9          1.6590    3.9450    2.0560 n         1 MOL     -0.288889
     94 C30         0.3360    3.2890    2.4810 c3        1 MOL     -0.285252
     95 C31        -0.6910    3.6620    1.3920 c         1 MOL      0.535338
     96 O16        -1.1290    4.8300    1.2480 o         1 MOL     -0.575039
     97 C32        -0.1900    3.9020    3.7980 c3        1 MOL      0.443654
     98 C33        -1.4960    3.1980    4.2210 c3        1 MOL     -0.333832
     99 C34         0.9180    3.7710    4.8250 c3        1 MOL     -0.333832
    100 H41         1.8390    4.8600    2.4330 hn        1 MOL      0.267518
    101 H42         0.3030    2.1980    2.5750 h1        1 MOL      0.235026
    102 H43        -0.4450    4.9550    3.7130 hc        1 MOL     -0.064739
    103 H44        -2.2730    3.2610    3.4630 hc        1 MOL      0.064471
    104 H45        -1.2180    2.1470    4.2040 hc        1 MOL      0.064471
    105 H46        -1.7830    3.5610    5.2010 hc        1 MOL      0.064471
    106 H47         1.1720    2.7130    4.7310 hc        1 MOL      0.064471
    107 H48         1.7950    4.3890    4.6250 hc        1 MOL      0.064471
    108 H49         0.4440    3.8940    5.7990 hc        1 MOL      0.064471
    109 N10        -1.1850    2.6430    0.5920 n         1 MOL     -0.094341
    110 C35        -2.3500    2.6780   -0.2820 c3        1 MOL     -0.019601
    111 C36        -3.6930    2.6210    0.4600 c         1 MOL      0.296085
    112 O17        -3.7810    2.0380    1.5250 o         1 MOL     -0.322532
    113 C37        -2.2810    1.5330   -1.2710 c3        1 MOL     -0.183346
    114 C38        -3.2670    1.5500   -2.4150 c         1 MOL      0.866798
    115 N11        -3.0480    2.3560   -3.4400 n         1 MOL     -0.990676
    116 O18        -4.2130    0.7730   -2.3960 o         1 MOL     -0.530001
    117 H50        -0.8760    1.6880    0.6530 hn        1 MOL     -0.072503
    118 H51        -2.3740    3.6230   -0.8250 h1        1 MOL      0.058166
    119 H52        -2.4290    0.5790   -0.7560 hc        1 MOL      0.111090
    120 H53        -1.2560    1.5050   -1.6450 hc        1 MOL      0.111090
    121 H54        -2.3830    3.1090   -3.3160 hn        1 MOL      0.409299
    122 H55        -3.3870    2.1390   -4.3670 hn        1 MOL      0.409299
    123 N12        -4.8150    3.1160   -0.0840 n         1 MOL     -0.236385
    124 C39        -6.1910    2.8580    0.4540 c3        1 MOL      0.032003
    125 C40        -6.4910    1.4060    0.7420 c         1 MOL      0.323489
    126 O19        -7.2310    1.1930    1.6920 o         1 MOL     -0.595917
    127 C41        -7.2950    3.4200   -0.4460 c3        1 MOL      0.067705
    128 C42        -7.5750    2.7710   -1.7750 ca        1 MOL      0.067647
    129 C43        -6.7070    2.8850   -2.8430 ca        1 MOL     -0.223612
    130 C44        -8.7440    2.0110   -1.8920 ca        1 MOL     -0.223612
    131 C45        -6.8990    2.1730   -4.0590 ca        1 MOL     -0.290255
    132 C46        -8.9770    1.3520   -3.1360 ca        1 MOL     -0.290255
    133 C47        -8.0640    1.3840   -4.1720 ca        1 MOL      0.325594
    134 O20        -8.2620    0.6850   -5.2900 oh        1 MOL     -0.434290
    135 H56        -4.8150    3.6350   -0.9430 hn        1 MOL      0.169426
    136 H57        -6.2580    3.3700    1.4170 h1        1 MOL      0.065170
    137 H58        -7.1090    4.4880   -0.5710 hc        1 MOL     -0.011874
    138 H59        -8.1730    3.4030    0.2080 hc        1 MOL     -0.011874
    139 H60        -5.8030    3.4600   -2.7160 ha        1 MOL      0.188816
    140 H61        -9.4970    1.9520   -1.1160 ha        1 MOL      0.188816
    141 H62        -6.1890    2.3000   -4.8660 ha        1 MOL      0.183308
    142 H63        -9.8750    0.7660   -3.1970 ha        1 MOL      0.183308
    143 H64        -7.4880    0.7550   -5.8610 ho        1 MOL      0.320820
    144 N13        -5.9960    0.4400    0.0240 n         1 MOL      0.729164
    145 C48        -6.2560   -0.9600    0.2810 c3        1 MOL     -0.219927
    146 C49        -5.4090   -1.4930    1.5090 c         1 MOL      0.322768
    147 O21        -5.7050   -2.5650    1.9760 o         1 MOL     -0.490496
    148 C50        -5.9380   -1.8430   -0.9720 c3        1 MOL      0.249753
    149 C51        -6.7890   -1.6010   -2.3130 c3        1 MOL     -0.407937
    150 C52        -8.2760   -1.9840   -2.2240 c         1 MOL      0.769346
    151 O22        -8.9080   -2.4920   -3.1880 o         1 MOL     -0.738273
    152 O23        -8.9050   -1.6740   -1.1860 o         1 MOL     -0.738273
    153 H65        -5.4130    0.6800   -0.7660 hn        1 MOL     -0.735792
    154 H66        -7.3090   -1.1280    0.5280 h1        1 MOL      0.106791
    155 H67        -5.8640   -2.8990   -0.7080 hc        1 MOL     -0.028780
    156 H68        -4.9240   -1.6580   -1.3130 hc        1 MOL     -0.028780
    157 H69        -6.3670   -2.2390   -3.0920 hc        1 MOL      0.116145
    158 H70        -6.6810   -0.5570   -2.6180 hc        1 MOL      0.116145
    159 N14        -4.3200   -0.7790    1.8440 n         1 MOL     -0.308157
    160 C53        -3.4500   -1.1150    2.9620 c3        1 MOL     -0.041495
    161 C54        -3.8880   -0.4290    4.2420 c         1 MOL      0.508064
    162 O24        -3.8340   -1.0840    5.3050 o         1 MOL     -0.586374
    163 C55        -1.9620   -0.8090    2.5400 c3        1 MOL     -0.080819
    164 C56        -1.5730   -1.6930    1.2980 c3        1 MOL     -0.060781
    165 C57        -0.3170   -1.1760    0.5830 c         1 MOL      0.504287
    166 O25         0.5560   -1.9530    0.0500 o         1 MOL     -0.576524
    167 O26        -0.0900    0.0530    0.5310 o         1 MOL     -0.576524
    168 H71        -4.2160    0.0250    1.2380 hn        1 MOL      0.393597
    169 H72        -3.5790   -2.1480    3.2660 h1        1 MOL      0.082309
    170 H73        -1.2530   -1.0050    3.3500 hc        1 MOL      0.036917
    171 H74        -2.0070    0.2280    2.2070 hc        1 MOL      0.036917
    172 H75        -2.3710   -1.6070    0.5730 hc        1 MOL      0.079558
    173 H76        -1.5080   -2.7490    1.5770 hc        1 MOL      0.079558
    174 N15        -4.3290    0.7830    4.1560 n         1 MOL     -0.116273
    175 C58        -4.8340    1.4640    5.3190 c3        1 MOL     -0.239769
    176 H77        -4.3770    1.0420    6.2140 h1        1 MOL      0.089245
    177 H78        -4.5920    2.5240    5.2530 h1        1 MOL      0.089245
    178 H79        -5.9160    1.3400    5.3720 h1        1 MOL      0.089245
    179 H80        -4.3440    1.2520    3.2630 hn        1 MOL      0.106161
    180 Ca1         2.3910   -0.1200    0.1000 Ca        1 MOL      1.733344
    181 O27         1.8110   -0.3440    2.7410 oh        1 MOL     -0.882241
    182 O28         1.3640    1.1630   -2.0490 oh        1 MOL     -0.882241
    183 H81         2.3970    0.1180    3.3420 ho        1 MOL      0.410960
    184 H82         2.0950    1.5580   -2.5250 ho        1 MOL      0.410960
    185 H83         1.3770   -0.9980    3.3010 ho        1 MOL      0.410960
    186 H84         1.2080    0.3310   -2.4830 ho        1 MOL      0.410960
    187 O29         4.5370    0.2970    1.7110 oh        1 MOL     -0.882241
    188 H85         4.2050    0.4510    2.5960 ho        1 MOL      0.410960
    189 H86         5.1670   -0.4140    1.8070 ho        1 MOL      0.410960
@<TRIPOS>BOND
     1    1    2 1   
     2    1    4 1   
     3    1    5 1   
     4    1    6 1   
     5    2    3 2   
     6    2    7 1   
     7    7    8 1   
     8    7   15 1   
     9    8    9 1   
    10    8   11 1   
    11    8   16 1   
    12    9   10 2   
    13    9   19 1   
    14   11   12 1   
    15   11   17 1   
    16   11   18 1   
    17   12   13 1   
    18   12   14 1   
    19   19   20 1   
    20   19   27 1   
    21   20   21 1   
    22   20   23 1   
    23   20   28 1   
    24   21   22 2   
    25   21   38 1   
    26   23   24 1   
    27   23   25 1   
    28   23   29 1   
    29   24   26 1   
    30   24   30 1   
    31   24   31 1   
    32   25   32 1   
    33   25   33 1   
    34   25   34 1   
    35   26   35 1   
    36   26   36 1   
    37   26   37 1   
    38   38   39 1   
    39   38   46 1   
    40   39   40 1   
    41   39   42 1   
    42   39   47 1   
    43   40   41 2   
    44   40   50 1   
    45   42   43 1   
    46   42   48 1   
    47   42   49 1   
    48   43   44 1   
    49   43   45 1   
    50   50   51 1   
    51   50   54 1   
    52   51   52 1   
    53   51   55 1   
    54   51   56 1   
    55   52   53 2   
    56   52   57 1   
    57   57   58 1   
    58   57   65 1   
    59   58   59 1   
    60   58   61 1   
    61   58   66 1   
    62   59   60 2   
    63   59   69 1   
    64   61   62 1   
    65   61   67 1   
    66   61   68 1   
    67   62   63 1   
    68   62   64 1   
    69   69   70 1   
    70   69   73 1   
    71   70   71 1   
    72   70   74 1   
    73   70   75 1   
    74   71   72 2   
    75   71   76 1   
    76   76   77 1   
    77   76   85 1   
    78   77   78 1   
    79   77   80 1   
    80   77   86 1   
    81   78   79 2   
    82   78   93 1   
    83   80   81 1   
    84   80   87 1   
    85   80   88 1   
    86   81   82 1   
    87   81   89 1   
    88   81   90 1   
    89   82   83 1   
    90   82   84 2   
    91   83   91 1   
    92   83   92 1   
    93   93   94 1   
    94   93  100 1   
    95   94   95 1   
    96   94   97 1   
    97   94  101 1   
    98   95   96 2   
    99   95  109 1   
   100   97   98 1   
   101   97   99 1   
   102   97  102 1   
   103   98  103 1   
   104   98  104 1   
   105   98  105 1   
   106   99  106 1   
   107   99  107 1   
   108   99  108 1   
   109  109  110 1   
   110  109  117 1   
   111  110  111 1   
   112  110  113 1   
   113  110  118 1   
   114  111  112 2   
   115  111  123 1   
   116  113  114 1   
   117  113  119 1   
   118  113  120 1   
   119  114  115 1   
   120  114  116 2   
   121  115  121 1   
   122  115  122 1   
   123  123  124 1   
   124  123  135 1   
   125  124  125 1   
   126  124  127 1   
   127  124  136 1   
   128  125  126 2   
   129  125  144 1   
   130  127  128 1   
   131  127  137 1   
   132  127  138 1   
   133  128  129 ar  
   134  128  130 ar  
   135  129  131 ar  
   136  129  139 1   
   137  130  132 ar  
   138  130  140 1   
   139  131  133 ar  
   140  131  141 1   
   141  132  133 ar  
   142  132  142 1   
   143  133  134 1   
   144  134  143 1   
   145  144  145 1   
   146  144  153 1   
   147  145  146 1   
   148  145  148 1   
   149  145  154 1   
   150  146  147 2   
   151  146  159 1   
   152  148  149 1   
   153  148  155 1   
   154  148  156 1   
   155  149  150 1   
   156  149  157 1   
   157  149  158 1   
   158  150  151 1   
   159  150  152 1   
   160  159  160 1   
   161  159  168 1   
   162  160  161 1   
   163  160  163 1   
   164  160  169 1   
   165  161  162 2   
   166  161  174 1   
   167  163  164 1   
   168  163  170 1   
   169  163  171 1   
   170  164  165 1   
   171  164  172 1   
   172  164  173 1   
   173  165  166 1   
   174  165  167 1   
   175  174  175 1   
   176  174  179 1   
   177  175  176 1   
   178  175  177 1   
   179  175  178 1   
   180  181  183 1   
   181  181  185 1   
   182  182  184 1   
   183  182  186 1   
   184  187  188 1   
   185  187  189 1   
@<TRIPOS>SUBSTRUCTURE
     1 MOL         1 TEMP              0 ****  ****    0 ROOT
