@<TRIPOS>MOLECULE
MOL
  189   185     1     0     0
SMALL
resp


@<TRIPOS>ATOM
      1 C1          0.3100   -3.9530    5.8990 c3        1 MOL     -0.470000
      2 C2          0.8120   -3.3640    4.5610 c         1 MOL      0.750559
      3 O1          0.7910   -2.1550    4.4400 o         1 MOL     -0.565865
      4 H1         -0.6970   -4.3490    5.7670 hc        1 MOL      0.121265
      5 H2          0.9760   -4.7550    6.2160 hc        1 MOL      0.121265
      6 H3          0.2950   -3.1700    6.6580 hc        1 MOL      0.121265
      7 N1          1.4130   -4.2800    3.7080 n         1 MOL     -0.637714
      8 C3          2.2470   -3.8130    2.5710 c3        1 MOL      0.305458
      9 C4          2.5650   -4.9660    1.5430 c         1 MOL      0.411201
     10 O2          3.1230   -6.0650    1.8790 o         1 MOL     -0.572283
     11 C5          3.5180   -3.1900    2.9950 c3        1 MOL     -0.354139
     12 C6          4.3830   -2.6910    1.7300 c         1 MOL      0.609224
     13 O3          5.5870   -3.0540    1.5550 o         1 MOL     -0.640570
     14 O4          3.8650   -1.9420    0.9240 o         1 MOL     -0.640570
     15 H4          1.2240   -5.2740    3.8000 hn        1 MOL      0.320471
     16 H5          1.7750   -3.0400    1.9720 h1        1 MOL      0.005708
     17 H6          4.0550   -3.9380    3.5830 hc        1 MOL      0.075445
     18 H7          3.1450   -2.3730    3.6140 hc        1 MOL      0.075445
     19 N2          2.3520   -4.7980    0.2050 n         1 MOL     -0.039376
     20 C7          2.6640   -5.8410   -0.7950 c3        1 MOL     -0.014909
     21 C8          3.7510   -5.3840   -1.8090 c         1 MOL      0.426336
     22 O5          4.3580   -6.1630   -2.5030 o         1 MOL     -0.581944
     23 C9          1.3870   -6.2510   -1.5260 c3        1 MOL      0.310580
     24 C10         0.6580   -5.1190   -2.2970 c3        1 MOL      0.041763
     25 C11         0.4380   -7.0760   -0.6270 c3        1 MOL     -0.478380
     26 C12        -0.2670   -5.5220   -3.4490 c3        1 MOL     -0.259946
     27 H8          1.9370   -3.9240   -0.0760 hn        1 MOL     -0.132692
     28 H9          3.0400   -6.7940   -0.4170 h1        1 MOL      0.081274
     29 H10         1.7580   -6.9310   -2.2920 hc        1 MOL     -0.058672
     30 H11         1.3970   -4.5200   -2.8340 hc        1 MOL      0.035586
     31 H12         0.1370   -4.4520   -1.6120 hc        1 MOL      0.035586
     32 H13         0.3030   -6.6710    0.3700 hc        1 MOL      0.102335
     33 H14        -0.5590   -7.1100   -1.0740 hc        1 MOL      0.102335
     34 H15         0.9880   -8.0150   -0.6110 hc        1 MOL      0.102335
     35 H16         0.2230   -5.6530   -4.4090 hc        1 MOL      0.051477
     36 H17        -0.8320   -6.4400   -3.2710 hc        1 MOL      0.051477
     37 H18        -0.9010   -4.6460   -3.5970 hc        1 MOL      0.051477
     38 N3          3.9380   -4.0820   -1.9630 n         1 MOL     -0.276284
     39 C13         4.6670   -3.4010   -3.0830 c3        1 MOL      0.067371
     40 C14         5.8810   -2.5760   -2.6590 c         1 MOL      0.434991
     41 O6          6.5780   -2.1340   -3.5630 o         1 MOL     -0.568697
     42 C15         3.7100   -2.5960   -3.9710 c3        1 MOL     -0.187609
     43 C16         2.7500   -1.6870   -3.1950 c         1 MOL      0.706568
     44 O7          2.8930   -1.4520   -1.9730 o         1 MOL     -0.691640
     45 O8          1.9080   -0.9840   -3.8940 o         1 MOL     -0.691640
     46 H19         3.2940   -3.4150   -1.5640 hn        1 MOL      0.294138
     47 H20         5.1100   -4.1600   -3.7390 h1        1 MOL      0.078198
     48 H21         3.1690   -3.3580   -4.5270 hc        1 MOL      0.048562
     49 H22         4.3050   -2.0320   -4.6810 hc        1 MOL      0.048562
     50 N4          6.1970   -2.4170   -1.3630 n         1 MOL     -0.187207
     51 C17         7.4360   -1.7330   -0.9900 c3        1 MOL     -0.075586
     52 C18         7.6100   -0.2340   -1.3470 c         1 MOL      0.474616
     53 O9          8.7100    0.2730   -1.2470 o         1 MOL     -0.593431
     54 H23         5.4680   -2.6640   -0.7100 hn        1 MOL      0.122604
     55 H24         8.3020   -2.2700   -1.3840 h1        1 MOL      0.068835
     56 H25         7.4190   -1.8080    0.1020 h1        1 MOL      0.068835
     57 N5          6.5460    0.4990   -1.7350 n         1 MOL     -0.070979
     58 C19         6.6840    1.8840   -2.1210 c3        1 MOL     -0.184239
     59 C20         6.8170    2.8710   -0.9980 c         1 MOL      0.515837
     60 O10         7.0640    4.0260   -1.2140 o         1 MOL     -0.526201
     61 C21         5.4180    2.2680   -2.9250 c3        1 MOL     -0.383060
     62 C22         4.0860    2.2310   -2.1870 c         1 MOL      0.862769
     63 O11         3.9380    1.5870   -1.1480 o         1 MOL     -0.728827
     64 O12         3.1190    2.7080   -2.8030 o         1 MOL     -0.728827
     65 H26         5.6310    0.0880   -1.6050 hn        1 MOL      0.115576
     66 H27         7.5530    1.9450   -2.7720 h1        1 MOL      0.145808
     67 H28         5.3370    1.4900   -3.6910 hc        1 MOL      0.120476
     68 H29         5.5200    3.2260   -3.4270 hc        1 MOL      0.120476
     69 N6          6.6370    2.4710    0.3020 n         1 MOL     -0.299956
     70 C23         6.5430    3.3040    1.5210 c3        1 MOL     -0.292399
     71 C24         5.2050    4.0390    1.7060 c         1 MOL      0.505445
     72 O13         5.0980    4.8700    2.6520 o         1 MOL     -0.606253
     73 H30         6.4830    1.4820    0.4810 hn        1 MOL      0.245622
     74 H31         7.4090    3.9760    1.5860 h1        1 MOL      0.137461
     75 H32         6.4890    2.5650    2.3100 h1        1 MOL      0.137461
     76 N7          4.1980    3.7860    0.8790 n         1 MOL     -0.007051
     77 C25         2.9150    4.4440    1.0190 c3        1 MOL     -0.319769
     78 C26         1.6710    3.5150    1.2040 c         1 MOL      0.655569
     79 O14         1.5670    2.4830    0.5410 o         1 MOL     -0.529337
     80 C27         2.7600    5.4410   -0.0870 c3        1 MOL      0.283522
     81 C28         3.9720    6.3580   -0.2340 c3        1 MOL     -0.380084
     82 C29         3.5260    7.6650   -0.8460 c         1 MOL      0.717031
     83 N8          3.0940    7.6820   -2.0890 n         1 MOL     -0.837239
     84 O15         3.4980    8.7220   -0.1950 o         1 MOL     -0.604396
     85 H33         4.3810    3.0430    0.2110 hn        1 MOL      0.158047
     86 H34         2.9690    5.0700    1.9150 h1        1 MOL      0.095402
     87 H35         1.9020    6.0750    0.1270 hc        1 MOL     -0.028437
     88 H36         2.5300    4.9380   -1.0330 hc        1 MOL     -0.028437
     89 H37         4.5700    5.8940   -1.0180 hc        1 MOL      0.103521
     90 H38         4.4350    6.4830    0.7480 hc        1 MOL      0.103521
     91 H39         3.1470    6.7790   -2.5490 hn        1 MOL      0.375669
     92 H40         2.9820    8.5410   -2.6130 hn        1 MOL      0.375669
     93 N9          0.7800    3.9110    2.0910 n         1 MOL     -0.569619
     94 C30        -0.3660    2.9750    2.4610 c3        1 MOL      0.025041
     95 C31        -1.4270    3.1780    1.4100 c         1 MOL      0.507236
     96 O16        -1.8070    4.3260    1.2080 o         1 MOL     -0.600849
     97 C32        -0.8620    3.1850    3.8350 c3        1 MOL      0.236412
     98 C33        -1.9430    2.2130    4.1790 c3        1 MOL     -0.220968
     99 C34         0.1060    3.1190    4.9770 c3        1 MOL     -0.220968
    100 H41         0.9730    4.7120    2.6740 hn        1 MOL      0.332876
    101 H42        -0.0150    1.9460    2.3800 h1        1 MOL      0.154245
    102 H43        -1.3140    4.1800    3.8820 hc        1 MOL     -0.005241
    103 H44        -2.2590    2.4990    5.1840 hc        1 MOL      0.038250
    104 H45        -2.8190    2.4270    3.5490 hc        1 MOL      0.038250
    105 H46        -1.7600    1.1450    4.1120 hc        1 MOL      0.038250
    106 H47         0.6140    2.1570    5.0200 hc        1 MOL      0.038250
    107 H48         0.8100    3.9420    4.8240 hc        1 MOL      0.038250
    108 H49        -0.4200    3.3500    5.8970 hc        1 MOL      0.038250
    109 N10        -1.9240    2.1160    0.7360 n         1 MOL     -0.145026
    110 C35        -3.1310    2.2980   -0.1330 c3        1 MOL      0.235885
    111 C36        -4.3970    1.9170    0.6400 c         1 MOL      0.028935
    112 O17        -4.4380    1.3250    1.7280 o         1 MOL     -0.239375
    113 C37        -2.8410    1.4280   -1.3710 c3        1 MOL     -0.261151
    114 C38        -3.9500    1.3580   -2.3820 c         1 MOL      0.752283
    115 N11        -4.3510    2.4940   -2.8030 n         1 MOL     -0.761036
    116 O18        -4.6490    0.3390   -2.5970 o         1 MOL     -0.654254
    117 H50        -1.3360    1.3010    0.6240 hn        1 MOL     -0.005933
    118 H51        -3.2390    3.3060   -0.5360 h1        1 MOL      0.037459
    119 H52        -2.6210    0.4680   -0.9010 hc        1 MOL      0.115965
    120 H53        -2.0260    1.8830   -1.9320 hc        1 MOL      0.115965
    121 H54        -3.8310    3.3430   -2.6250 hn        1 MOL      0.328918
    122 H55        -5.0980    2.4150   -3.4860 hn        1 MOL      0.328918
    123 N12        -5.5800    2.2780    0.1490 n         1 MOL     -0.169822
    124 C39        -6.9310    1.9090    0.7030 c3        1 MOL      0.122990
    125 C40        -7.1610    0.3580    0.7950 c         1 MOL      0.273615
    126 O19        -8.0780   -0.0860    1.4180 o         1 MOL     -0.504171
    127 C41        -8.0100    2.6330   -0.0670 c3        1 MOL     -0.120298
    128 C42        -7.9000    2.4650   -1.5630 ca        1 MOL      0.234514
    129 C43        -7.3510    3.5440   -2.3030 ca        1 MOL     -0.362888
    130 C44        -8.4790    1.3640   -2.1700 ca        1 MOL     -0.362888
    131 C45        -7.3140    3.3480   -3.7220 ca        1 MOL     -0.019687
    132 C46        -8.4360    1.1870   -3.5760 ca        1 MOL     -0.019687
    133 C47        -7.8960    2.2490   -4.3390 ca        1 MOL      0.104404
    134 O20        -8.0730    2.1930   -5.6680 oh        1 MOL     -0.389452
    135 H56        -5.6400    2.7740   -0.7230 hn        1 MOL      0.123746
    136 H57        -7.0380    2.3730    1.6860 h1        1 MOL      0.050996
    137 H58        -8.0450    3.6830    0.2020 hc        1 MOL      0.044167
    138 H59        -8.9530    2.1930    0.2870 hc        1 MOL      0.044167
    139 H60        -7.0780    4.5080   -1.8920 ha        1 MOL      0.168023
    140 H61        -8.9110    0.5500   -1.6080 ha        1 MOL      0.168023
    141 H62        -7.0050    4.1730   -4.3450 ha        1 MOL      0.066176
    142 H63        -8.6550    0.2140   -4.0030 ha        1 MOL      0.066176
    143 H64        -7.8900    3.0440   -6.0690 ho        1 MOL      0.304553
    144 N13        -6.3190   -0.3900    0.0160 n         1 MOL      0.068161
    145 C48        -6.2580   -1.8080    0.0750 c3        1 MOL     -0.103990
    146 C49        -5.3140   -2.4050    1.1870 c         1 MOL      0.379988
    147 O21        -5.3860   -3.5500    1.5510 o         1 MOL     -0.509194
    148 C50        -5.8700   -2.4200   -1.3380 c3        1 MOL      0.398980
    149 C51        -6.8880   -2.2640   -2.4980 c3        1 MOL     -0.372663
    150 C52        -8.2930   -2.8210   -2.2000 c         1 MOL      0.697013
    151 O22        -9.2310   -2.0810   -1.8220 o         1 MOL     -0.715153
    152 O23        -8.4910   -4.0400   -2.1720 o         1 MOL     -0.715153
    153 H65        -5.8140    0.0490   -0.7440 hn        1 MOL      0.248009
    154 H66        -7.2840   -2.1330    0.2660 h1        1 MOL      0.117622
    155 H67        -5.8160   -3.4890   -1.1380 hc        1 MOL     -0.101001
    156 H68        -4.9090   -1.9850   -1.5920 hc        1 MOL     -0.101001
    157 H69        -6.5170   -2.6870   -3.4350 hc        1 MOL      0.084380
    158 H70        -7.2490   -1.2380   -2.6170 hc        1 MOL      0.084380
    159 N14        -4.4720   -1.5200    1.7470 n         1 MOL     -0.173333
    160 C53        -3.5140   -1.8470    2.7950 c3        1 MOL     -0.056660
    161 C54        -3.7680   -1.1520    4.0970 c         1 MOL      0.472901
    162 O24        -3.4000   -1.7170    5.1580 o         1 MOL     -0.557916
    163 C55        -2.1630   -1.3860    2.2000 c3        1 MOL     -0.019481
    164 C56        -1.7230   -2.1380    0.9620 c3        1 MOL      0.075218
    165 C57        -0.4700   -1.4750    0.3260 c         1 MOL      0.703085
    166 O25         0.5090   -2.1060   -0.0040 o         1 MOL     -0.668301
    167 O26        -0.4600   -0.2710    0.1850 o         1 MOL     -0.668301
    168 H71        -4.4410   -0.5680    1.3890 hn        1 MOL     -0.033015
    169 H72        -3.5530   -2.9260    2.9320 h1        1 MOL      0.089380
    170 H73        -1.3740   -1.4690    2.9490 hc        1 MOL      0.029512
    171 H74        -2.1310   -0.3060    2.0220 hc        1 MOL      0.029512
    172 H75        -2.5220   -2.2420    0.2330 hc        1 MOL     -0.022688
    173 H76        -1.3860   -3.1350    1.2650 hc        1 MOL     -0.022688
    174 N15        -4.5090    0.0030    4.1000 n         1 MOL     -0.193545
    175 C58        -4.7620    0.6840    5.3770 c3        1 MOL     -0.092838
    176 H77        -5.6150    1.3540    5.2690 h1        1 MOL      0.051231
    177 H78        -4.9780   -0.0560    6.1480 h1        1 MOL      0.051231
    178 H79        -3.8820    1.2610    5.6620 h1        1 MOL      0.051231
    179 H80        -4.8020    0.4290    3.2300 hn        1 MOL      0.128532
    180 Ca1         2.2450   -0.1100    0.0700 Ca        1 MOL      1.747071
    181 O27         1.3110   -0.0510    2.7690 oh        1 MOL     -0.935662
    182 O28         1.2130    0.7940   -2.3370 oh        1 MOL     -0.935662
    183 H81         1.9520    0.3350    3.3550 ho        1 MOL      0.439202
    184 H82         1.4850    0.0830   -2.9140 ho        1 MOL      0.439202
    185 H83         0.7840   -0.6300    3.3290 ho        1 MOL      0.439202
    186 H84         1.8700    1.4760   -2.4490 ho        1 MOL      0.439202
    187 O29         4.1760    0.9560    1.9830 oh        1 MOL     -0.935662
    188 H85         3.9540    0.8660    2.9130 ho        1 MOL      0.439202
    189 H86         5.0760    0.6400    1.9220 ho        1 MOL      0.439202
@<TRIPOS>BOND
     1    1    2 1   
     2    1    4 1   
     3    1    5 1   
     4    1    6 1   
     5    2    3 2   
     6    2    7 1   
     7    7    8 1   
     8    7   15 1   
     9    8    9 1   
    10    8   11 1   
    11    8   16 1   
    12    9   10 2   
    13    9   19 1   
    14   11   12 1   
    15   11   17 1   
    16   11   18 1   
    17   12   13 1   
    18   12   14 1   
    19   19   20 1   
    20   19   27 1   
    21   20   21 1   
    22   20   23 1   
    23   20   28 1   
    24   21   22 2   
    25   21   38 1   
    26   23   24 1   
    27   23   25 1   
    28   23   29 1   
    29   24   26 1   
    30   24   30 1   
    31   24   31 1   
    32   25   32 1   
    33   25   33 1   
    34   25   34 1   
    35   26   35 1   
    36   26   36 1   
    37   26   37 1   
    38   38   39 1   
    39   38   46 1   
    40   39   40 1   
    41   39   42 1   
    42   39   47 1   
    43   40   41 2   
    44   40   50 1   
    45   42   43 1   
    46   42   48 1   
    47   42   49 1   
    48   43   44 1   
    49   43   45 1   
    50   50   51 1   
    51   50   54 1   
    52   51   52 1   
    53   51   55 1   
    54   51   56 1   
    55   52   53 2   
    56   52   57 1   
    57   57   58 1   
    58   57   65 1   
    59   58   59 1   
    60   58   61 1   
    61   58   66 1   
    62   59   60 2   
    63   59   69 1   
    64   61   62 1   
    65   61   67 1   
    66   61   68 1   
    67   62   63 1   
    68   62   64 1   
    69   69   70 1   
    70   69   73 1   
    71   70   71 1   
    72   70   74 1   
    73   70   75 1   
    74   71   72 2   
    75   71   76 1   
    76   76   77 1   
    77   76   85 1   
    78   77   78 1   
    79   77   80 1   
    80   77   86 1   
    81   78   79 2   
    82   78   93 1   
    83   80   81 1   
    84   80   87 1   
    85   80   88 1   
    86   81   82 1   
    87   81   89 1   
    88   81   90 1   
    89   82   83 1   
    90   82   84 2   
    91   83   91 1   
    92   83   92 1   
    93   93   94 1   
    94   93  100 1   
    95   94   95 1   
    96   94   97 1   
    97   94  101 1   
    98   95   96 2   
    99   95  109 1   
   100   97   98 1   
   101   97   99 1   
   102   97  102 1   
   103   98  103 1   
   104   98  104 1   
   105   98  105 1   
   106   99  106 1   
   107   99  107 1   
   108   99  108 1   
   109  109  110 1   
   110  109  117 1   
   111  110  111 1   
   112  110  113 1   
   113  110  118 1   
   114  111  112 2   
   115  111  123 1   
   116  113  114 1   
   117  113  119 1   
   118  113  120 1   
   119  114  115 1   
   120  114  116 2   
   121  115  121 1   
   122  115  122 1   
   123  123  124 1   
   124  123  135 1   
   125  124  125 1   
   126  124  127 1   
   127  124  136 1   
   128  125  126 2   
   129  125  144 1   
   130  127  128 1   
   131  127  137 1   
   132  127  138 1   
   133  128  129 ar  
   134  128  130 ar  
   135  129  131 ar  
   136  129  139 1   
   137  130  132 ar  
   138  130  140 1   
   139  131  133 ar  
   140  131  141 1   
   141  132  133 ar  
   142  132  142 1   
   143  133  134 1   
   144  134  143 1   
   145  144  145 1   
   146  144  153 1   
   147  145  146 1   
   148  145  148 1   
   149  145  154 1   
   150  146  147 2   
   151  146  159 1   
   152  148  149 1   
   153  148  155 1   
   154  148  156 1   
   155  149  150 1   
   156  149  157 1   
   157  149  158 1   
   158  150  151 1   
   159  150  152 1   
   160  159  160 1   
   161  159  168 1   
   162  160  161 1   
   163  160  163 1   
   164  160  169 1   
   165  161  162 2   
   166  161  174 1   
   167  163  164 1   
   168  163  170 1   
   169  163  171 1   
   170  164  165 1   
   171  164  172 1   
   172  164  173 1   
   173  165  166 1   
   174  165  167 1   
   175  174  175 1   
   176  174  179 1   
   177  175  176 1   
   178  175  177 1   
   179  175  178 1   
   180  181  183 1   
   181  181  185 1   
   182  182  184 1   
   183  182  186 1   
   184  187  188 1   
   185  187  189 1   
@<TRIPOS>SUBSTRUCTURE
     1 MOL         1 TEMP              0 ****  ****    0 ROOT
