@<TRIPOS>MOLECULE
MOL
  189   185     1     0     0
SMALL
resp


@<TRIPOS>ATOM
      1 C1         -0.4860    3.6770    5.8850 c3        1 MOL     -0.315998
      2 C2         -1.0590    3.2050    4.5390 c         1 MOL      0.693534
      3 O1         -0.9290    2.0010    4.2340 o         1 MOL     -0.594578
      4 H1         -0.8040    4.7020    6.0760 hc        1 MOL      0.079762
      5 H2         -0.8500    3.0300    6.6830 hc        1 MOL      0.079762
      6 H3          0.6040    3.6350    5.8520 hc        1 MOL      0.079762
      7 N1         -1.7100    4.0750    3.7700 n         1 MOL     -0.539427
      8 C3         -2.4290    3.7410    2.5130 c3        1 MOL      0.202706
      9 C4         -2.6060    4.9700    1.5580 c         1 MOL      0.461031
     10 O2         -2.8290    6.0690    1.9880 o         1 MOL     -0.554726
     11 C5         -3.8160    3.1960    2.8470 c3        1 MOL     -0.313149
     12 C6         -4.5660    2.7530    1.5290 c         1 MOL      0.717276
     13 O3         -5.5210    3.4030    1.0780 o         1 MOL     -0.651880
     14 O4         -4.1740    1.7540    0.9100 o         1 MOL     -0.651880
     15 H4         -1.5180    5.0540    3.9040 hn        1 MOL      0.299812
     16 H5         -1.8410    3.0180    1.9480 h1        1 MOL     -0.046379
     17 H6         -4.4490    3.9570    3.3060 hc        1 MOL      0.069915
     18 H7         -3.7400    2.3500    3.5320 hc        1 MOL      0.069915
     19 N2         -2.5460    4.6770    0.2640 n         1 MOL     -0.096213
     20 C7         -2.7030    5.6730   -0.8150 c3        1 MOL     -0.138682
     21 C8         -3.6260    5.1620   -1.9370 c         1 MOL      0.443670
     22 O5         -3.8530    5.8460   -2.9020 o         1 MOL     -0.555536
     23 C9         -1.3430    6.1700   -1.4080 c3        1 MOL      0.148660
     24 C10        -0.3670    5.0150   -1.6660 c3        1 MOL      0.223115
     25 C11        -0.7000    7.1420   -0.4100 c3        1 MOL     -0.273711
     26 C12         0.8530    5.5300   -2.3570 c3        1 MOL     -0.381206
     27 H8         -2.1960    3.7540    0.0570 hn        1 MOL      0.148604
     28 H9         -3.1880    6.5430   -0.3620 h1        1 MOL      0.115076
     29 H10        -1.5070    6.6240   -2.3840 hc        1 MOL     -0.017736
     30 H11        -0.8240    4.2720   -2.3290 hc        1 MOL      0.004220
     31 H12        -0.0990    4.5040   -0.7450 hc        1 MOL      0.004220
     32 H13        -1.4150    7.8430    0.0080 hc        1 MOL      0.049366
     33 H14        -0.3720    6.6000    0.4770 hc        1 MOL      0.049366
     34 H15         0.1440    7.6510   -0.8720 hc        1 MOL      0.049366
     35 H16         1.5110    6.2090   -1.8080 hc        1 MOL      0.079651
     36 H17         1.4360    4.7070   -2.7820 hc        1 MOL      0.079651
     37 H18         0.6300    5.9810   -3.3150 hc        1 MOL      0.079651
     38 N3         -4.2350    3.9710   -1.8250 n         1 MOL     -0.228675
     39 C13        -5.0450    3.3320   -2.9320 c3        1 MOL      0.122841
     40 C14        -6.2380    2.4430   -2.3490 c         1 MOL      0.282868
     41 O6         -7.2120    2.3590   -3.1000 o         1 MOL     -0.595913
     42 C15        -4.1730    2.5150   -3.8960 c3        1 MOL     -0.251087
     43 C16        -3.1580    1.5410   -3.2740 c         1 MOL      0.793910
     44 O7         -3.4100    0.8430   -2.2590 o         1 MOL     -0.707227
     45 O8         -2.1010    1.4360   -3.8580 o         1 MOL     -0.707227
     46 H19        -4.2110    3.4290   -0.9750 hn        1 MOL      0.127054
     47 H20        -5.4970    4.1320   -3.5200 h1        1 MOL      0.066851
     48 H21        -3.6580    3.2020   -4.5670 hc        1 MOL      0.058659
     49 H22        -4.8300    1.8880   -4.5040 hc        1 MOL      0.058659
     50 N4         -6.2500    1.9010   -1.1830 n         1 MOL      0.276268
     51 C17        -7.4470    1.2990   -0.5200 c3        1 MOL     -0.231219
     52 C18        -7.6950   -0.2000   -0.7700 c         1 MOL      0.497344
     53 O9         -8.7270   -0.7150   -0.3770 o         1 MOL     -0.601143
     54 H23        -5.4740    2.1330   -0.5710 hn        1 MOL     -0.148250
     55 H24        -8.3600    1.8580   -0.7410 h1        1 MOL      0.108853
     56 H25        -7.2240    1.4900    0.5240 h1        1 MOL      0.108853
     57 N5         -6.8230   -0.8940   -1.4550 n         1 MOL     -0.200630
     58 C19        -6.9670   -2.2810   -1.9820 c3        1 MOL      0.035331
     59 C20        -7.0210   -3.3700   -0.8290 c         1 MOL      0.410593
     60 O10        -7.5200   -4.5020   -1.1350 o         1 MOL     -0.551667
     61 C21        -5.7950   -2.6160   -2.8760 c3        1 MOL     -0.244270
     62 C22        -4.3610   -2.4040   -2.3720 c         1 MOL      0.670224
     63 O11        -4.1840   -2.0940   -1.1710 o         1 MOL     -0.687843
     64 O12        -3.3860   -2.5290   -3.2020 o         1 MOL     -0.687843
     65 H26        -5.9480   -0.4260   -1.6380 hn        1 MOL      0.105483
     66 H27        -7.8150   -2.5410   -2.6120 h1        1 MOL      0.089704
     67 H28        -5.9220   -1.8960   -3.6860 hc        1 MOL      0.078809
     68 H29        -5.9330   -3.5880   -3.3410 hc        1 MOL      0.078809
     69 N6         -6.6090   -3.0710    0.4290 n         1 MOL     -0.195869
     70 C23        -6.7350   -4.0170    1.4810 c3        1 MOL     -0.251547
     71 C24        -5.4370   -4.6660    1.9240 c         1 MOL      0.507817
     72 O13        -5.5490   -5.6340    2.7010 o         1 MOL     -0.572542
     73 H30        -6.0490   -2.2400    0.5250 hn        1 MOL      0.250884
     74 H31        -7.3440   -4.8510    1.1370 h1        1 MOL      0.124731
     75 H32        -7.1720   -3.5430    2.3590 h1        1 MOL      0.124731
     76 N7         -4.2570   -4.3370    1.3220 n         1 MOL     -0.408543
     77 C25        -2.9310   -4.9590    1.5540 c3        1 MOL      0.128015
     78 C26        -1.9930   -3.7140    1.5800 c         1 MOL      0.591979
     79 O14        -2.1190   -2.7050    0.8680 o         1 MOL     -0.594014
     80 C27        -2.6030   -5.9530    0.4070 c3        1 MOL     -0.329175
     81 C28        -2.7430   -5.2740   -0.8780 c3        1 MOL      0.100240
     82 C29        -2.5110   -6.0560   -2.1610 c         1 MOL      0.579441
     83 N8         -2.8390   -5.5670   -3.3240 n         1 MOL     -0.766592
     84 O15        -2.0370   -7.2060   -2.1230 o         1 MOL     -0.614663
     85 H33        -4.2990   -3.6900    0.5480 hn        1 MOL      0.422961
     86 H34        -2.8370   -5.3730    2.5560 h1        1 MOL      0.021054
     87 H35        -3.2520   -6.8260    0.3850 hc        1 MOL      0.100843
     88 H36        -1.5600   -6.2880    0.4340 hc        1 MOL      0.100843
     89 H37        -1.9350   -4.5540   -1.0420 hc        1 MOL      0.028212
     90 H38        -3.7010   -4.7580   -0.9440 hc        1 MOL      0.028212
     91 H39        -3.2070   -4.6310   -3.3760 hn        1 MOL      0.356459
     92 H40        -2.5930   -6.0700   -4.1630 hn        1 MOL      0.356459
     93 N9         -0.9430   -3.7960    2.4130 n         1 MOL     -0.679485
     94 C30         0.1440   -2.8230    2.4600 c3        1 MOL     -0.096502
     95 C31         1.1560   -3.0020    1.3000 c         1 MOL      0.762573
     96 O16         1.7440   -4.0860    1.1590 o         1 MOL     -0.594437
     97 C32         0.7340   -2.9030    3.9240 c3        1 MOL      0.413972
     98 C33         1.4250   -4.1650    4.3430 c3        1 MOL     -0.467433
     99 C34         1.8460   -1.9190    4.0570 c3        1 MOL     -0.467433
    100 H41        -0.7960   -4.6950    2.8520 hn        1 MOL      0.361835
    101 H42        -0.3510   -1.8600    2.3160 h1        1 MOL      0.126260
    102 H43        -0.0040   -2.6540    4.6900 hc        1 MOL     -0.037107
    103 H44         1.7670   -4.0860    5.3760 hc        1 MOL      0.104928
    104 H45         0.6470   -4.9200    4.2920 hc        1 MOL      0.104928
    105 H46         2.2100   -4.3610    3.6090 hc        1 MOL      0.104928
    106 H47         2.0680   -1.8670    5.1200 hc        1 MOL      0.104928
    107 H48         2.6870   -2.2260    3.4260 hc        1 MOL      0.104928
    108 H49         1.4990   -0.9510    3.6900 hc        1 MOL      0.104928
    109 N10         1.5160   -1.9240    0.5730 n         1 MOL     -0.355193
    110 C35         2.5820   -1.9510   -0.4240 c3        1 MOL     -0.055453
    111 C36         3.9730   -1.6960    0.2030 c         1 MOL      0.405753
    112 O17         4.1450   -1.1410    1.2790 o         1 MOL     -0.398182
    113 C37         2.1810   -0.8890   -1.4700 c3        1 MOL      0.008088
    114 C38         3.1270   -0.9300   -2.6280 c         1 MOL      0.524148
    115 N11         2.9440   -1.8310   -3.5100 n         1 MOL     -0.657436
    116 O18         4.0140   -0.0830   -2.7160 o         1 MOL     -0.475336
    117 H50         0.9410   -1.0990    0.6170 hn        1 MOL      0.135932
    118 H51         2.5920   -2.9580   -0.8340 h1        1 MOL      0.052023
    119 H52         2.0990    0.1380   -1.1030 hc        1 MOL      0.069159
    120 H53         1.2290   -1.0280   -1.9680 hc        1 MOL      0.069159
    121 H54         2.2150   -2.5160   -3.3430 hn        1 MOL      0.335200
    122 H55         3.5610   -1.8910   -4.3050 hn        1 MOL      0.335200
    123 N12         5.0040   -2.1440   -0.5820 n         1 MOL     -0.483137
    124 C39         6.3810   -1.7800   -0.3120 c3        1 MOL      0.446971
    125 C40         6.5780   -0.2660    0.0140 c         1 MOL      0.374206
    126 O19         7.3770    0.0840    0.8780 o         1 MOL     -0.526590
    127 C41         7.2130   -2.1060   -1.6000 c3        1 MOL     -0.432674
    128 C42         8.7240   -2.2040   -1.4260 ca        1 MOL      0.473031
    129 C43         9.3600   -2.4470   -0.2070 ca        1 MOL     -0.451511
    130 C44         9.5190   -2.1930   -2.5880 ca        1 MOL     -0.451511
    131 C45        10.7850   -2.7190   -0.1540 ca        1 MOL      0.038903
    132 C46        10.9020   -2.3670   -2.5770 ca        1 MOL      0.038903
    133 C47        11.5370   -2.7390   -1.3420 ca        1 MOL      0.005305
    134 O20        12.8590   -2.9810   -1.2200 oh        1 MOL     -0.460574
    135 H56         4.7820   -2.7420   -1.3650 hn        1 MOL      0.272189
    136 H57         6.7510   -2.3060    0.5700 h1        1 MOL     -0.050200
    137 H58         7.0250   -1.2690   -2.2700 hc        1 MOL      0.088076
    138 H59         6.8150   -3.0750   -1.9150 hc        1 MOL      0.088076
    139 H60         8.8550   -2.5050    0.7380 ha        1 MOL      0.185700
    140 H61         9.0860   -1.9700   -3.5600 ha        1 MOL      0.185700
    141 H62        11.2450   -2.9370    0.7990 ha        1 MOL      0.077602
    142 H63        11.4850   -2.3500   -3.4880 ha        1 MOL      0.077602
    143 H64        13.2800   -2.8920   -2.0710 ho        1 MOL      0.369104
    144 N13         5.8970    0.6560   -0.7000 n         1 MOL      0.008773
    145 C48         6.0110    2.1470   -0.5140 c3        1 MOL     -0.186124
    146 C49         5.2380    2.6140    0.7380 c         1 MOL      0.399553
    147 O21         5.4710    3.6580    1.3240 o         1 MOL     -0.499337
    148 C50         5.5620    2.9290   -1.7520 c3        1 MOL     -0.023609
    149 C51         6.3760    2.4970   -3.0200 c3        1 MOL     -0.168575
    150 C52         7.9330    2.6840   -2.8130 c         1 MOL      0.685220
    151 O22         8.6390    1.7550   -3.1980 o         1 MOL     -0.711258
    152 O23         8.4400    3.7290   -2.4030 o         1 MOL     -0.711258
    153 H65         5.3450    0.3490   -1.4840 hn        1 MOL      0.043803
    154 H66         7.0540    2.4670   -0.4440 h1        1 MOL      0.141421
    155 H67         5.6750    3.9940   -1.5640 hc        1 MOL      0.028717
    156 H68         4.5050    2.7090   -1.8410 hc        1 MOL      0.028717
    157 H69         6.0310    3.0750   -3.8750 hc        1 MOL      0.014062
    158 H70         6.2210    1.4400   -3.2490 hc        1 MOL      0.014062
    159 N14         4.2440    1.7780    1.1090 n         1 MOL     -0.094448
    160 C53         3.4720    2.1250    2.3030 c3        1 MOL     -0.109860
    161 C54         4.1140    1.6800    3.5980 c         1 MOL      0.497434
    162 O24         4.1930    2.4420    4.5810 o         1 MOL     -0.552745
    163 C55         2.0490    1.4630    2.1150 c3        1 MOL      0.083077
    164 C56         1.2440    2.2090    1.0400 c3        1 MOL     -0.017684
    165 C57        -0.0820    1.4940    0.6950 c         1 MOL      0.844429
    166 O25        -0.9260    2.1020    0.0270 o         1 MOL     -0.769589
    167 O26        -0.2480    0.2430    0.8510 o         1 MOL     -0.769589
    168 H71         4.0400    0.9840    0.5140 hn        1 MOL      0.080512
    169 H72         3.3220    3.1990    2.4100 h1        1 MOL      0.074892
    170 H73         1.5640    1.6000    3.0830 hc        1 MOL     -0.010957
    171 H74         2.1250    0.4390    1.7610 hc        1 MOL     -0.010957
    172 H75         1.8280    2.3160    0.1280 hc        1 MOL     -0.005252
    173 H76         1.1350    3.2070    1.4710 hc        1 MOL     -0.005252
    174 N15         4.7400    0.4600    3.6520 n         1 MOL     -0.165496
    175 C58         5.5740    0.0470    4.7920 c3        1 MOL     -0.222462
    176 H77         5.9580   -0.9580    4.6140 h1        1 MOL      0.084023
    177 H78         6.4070    0.7390    4.9020 h1        1 MOL      0.084023
    178 H79         4.9740    0.0510    5.7020 h1        1 MOL      0.084023
    179 H80         4.5890   -0.2260    2.9330 hn        1 MOL      0.156766
    180 Ca1        -2.6810   -0.2650    0.1250 Ca        1 MOL      1.754766
    181 O27        -2.2720    0.1070    2.7930 oh        1 MOL     -0.903655
    182 H81        -1.9290    0.8610    3.2680 ho        1 MOL      0.418676
    183 H82        -2.3510   -0.5780    3.4510 ho        1 MOL      0.418676
    184 O28        -1.4980   -1.2560   -2.0760 oh        1 MOL     -0.903655
    185 H83        -2.0720   -1.9840   -2.3060 ho        1 MOL      0.418676
    186 H84        -1.7570   -0.5540   -2.6770 ho        1 MOL      0.418676
    187 O29        -4.6830   -1.4880    2.0730 oh        1 MOL     -0.903655
    188 H85        -5.5630   -1.2670    2.3800 ho        1 MOL      0.418676
    189 H86        -4.1980   -1.6700    2.8770 ho        1 MOL      0.418676
@<TRIPOS>BOND
     1    1    2 1   
     2    1    4 1   
     3    1    5 1   
     4    1    6 1   
     5    2    3 2   
     6    2    7 1   
     7    7    8 1   
     8    7   15 1   
     9    8    9 1   
    10    8   11 1   
    11    8   16 1   
    12    9   10 2   
    13    9   19 1   
    14   11   12 1   
    15   11   17 1   
    16   11   18 1   
    17   12   13 1   
    18   12   14 1   
    19   19   20 1   
    20   19   27 1   
    21   20   21 1   
    22   20   23 1   
    23   20   28 1   
    24   21   22 2   
    25   21   38 1   
    26   23   24 1   
    27   23   25 1   
    28   23   29 1   
    29   24   26 1   
    30   24   30 1   
    31   24   31 1   
    32   25   32 1   
    33   25   33 1   
    34   25   34 1   
    35   26   35 1   
    36   26   36 1   
    37   26   37 1   
    38   38   39 1   
    39   38   46 1   
    40   39   40 1   
    41   39   42 1   
    42   39   47 1   
    43   40   41 2   
    44   40   50 1   
    45   42   43 1   
    46   42   48 1   
    47   42   49 1   
    48   43   44 1   
    49   43   45 1   
    50   50   51 1   
    51   50   54 1   
    52   51   52 1   
    53   51   55 1   
    54   51   56 1   
    55   52   53 2   
    56   52   57 1   
    57   57   58 1   
    58   57   65 1   
    59   58   59 1   
    60   58   61 1   
    61   58   66 1   
    62   59   60 2   
    63   59   69 1   
    64   61   62 1   
    65   61   67 1   
    66   61   68 1   
    67   62   63 1   
    68   62   64 1   
    69   69   70 1   
    70   69   73 1   
    71   70   71 1   
    72   70   74 1   
    73   70   75 1   
    74   71   72 2   
    75   71   76 1   
    76   76   77 1   
    77   76   85 1   
    78   77   78 1   
    79   77   80 1   
    80   77   86 1   
    81   78   79 2   
    82   78   93 1   
    83   80   81 1   
    84   80   87 1   
    85   80   88 1   
    86   81   82 1   
    87   81   89 1   
    88   81   90 1   
    89   82   83 1   
    90   82   84 2   
    91   83   91 1   
    92   83   92 1   
    93   93   94 1   
    94   93  100 1   
    95   94   95 1   
    96   94   97 1   
    97   94  101 1   
    98   95   96 2   
    99   95  109 1   
   100   97   98 1   
   101   97   99 1   
   102   97  102 1   
   103   98  103 1   
   104   98  104 1   
   105   98  105 1   
   106   99  106 1   
   107   99  107 1   
   108   99  108 1   
   109  109  110 1   
   110  109  117 1   
   111  110  111 1   
   112  110  113 1   
   113  110  118 1   
   114  111  112 2   
   115  111  123 1   
   116  113  114 1   
   117  113  119 1   
   118  113  120 1   
   119  114  115 1   
   120  114  116 2   
   121  115  121 1   
   122  115  122 1   
   123  123  124 1   
   124  123  135 1   
   125  124  125 1   
   126  124  127 1   
   127  124  136 1   
   128  125  126 2   
   129  125  144 1   
   130  127  128 1   
   131  127  137 1   
   132  127  138 1   
   133  128  129 ar  
   134  128  130 ar  
   135  129  131 ar  
   136  129  139 1   
   137  130  132 ar  
   138  130  140 1   
   139  131  133 ar  
   140  131  141 1   
   141  132  133 ar  
   142  132  142 1   
   143  133  134 1   
   144  134  143 1   
   145  144  145 1   
   146  144  153 1   
   147  145  146 1   
   148  145  148 1   
   149  145  154 1   
   150  146  147 2   
   151  146  159 1   
   152  148  149 1   
   153  148  155 1   
   154  148  156 1   
   155  149  150 1   
   156  149  157 1   
   157  149  158 1   
   158  150  151 1   
   159  150  152 1   
   160  159  160 1   
   161  159  168 1   
   162  160  161 1   
   163  160  163 1   
   164  160  169 1   
   165  161  162 2   
   166  161  174 1   
   167  163  164 1   
   168  163  170 1   
   169  163  171 1   
   170  164  165 1   
   171  164  172 1   
   172  164  173 1   
   173  165  166 1   
   174  165  167 1   
   175  174  175 1   
   176  174  179 1   
   177  175  176 1   
   178  175  177 1   
   179  175  178 1   
   180  181  182 1   
   181  181  183 1   
   182  184  185 1   
   183  184  186 1   
   184  187  188 1   
   185  187  189 1   
@<TRIPOS>SUBSTRUCTURE
     1 MOL         1 TEMP              0 ****  ****    0 ROOT
