@<TRIPOS>MOLECULE
MOL
  179   176     1     0     0
SMALL
resp


@<TRIPOS>ATOM
      1 C1          1.8270    2.1250    6.3550 c3        1 MOL     -0.405765
      2 C2          1.5220    1.9030    4.8580 c         1 MOL      0.695889
      3 O1          2.4050    1.5360    4.1090 o         1 MOL     -0.549213
      4 H1          0.9210    2.4530    6.8650 hc        1 MOL      0.103464
      5 H2          2.1760    1.1920    6.7980 hc        1 MOL      0.103464
      6 H3          2.5980    2.8880    6.4600 hc        1 MOL      0.103464
      7 N1          0.3100    2.2280    4.4330 n         1 MOL     -0.547881
      8 C3         -0.2640    2.1310    3.0950 c3        1 MOL     -0.036238
      9 C4         -0.2500    3.5170    2.4400 c         1 MOL      0.653898
     10 O2         -0.7580    4.5650    2.8930 o         1 MOL     -0.575738
     11 C5         -1.6010    1.4400    3.1230 c3        1 MOL      0.078886
     12 C6         -2.2650    1.4160    1.6880 c         1 MOL      0.815719
     13 O3         -3.5000    1.0960    1.6450 o         1 MOL     -0.802817
     14 O4         -1.5880    1.6400    0.6700 o         1 MOL     -0.802817
     15 H4         -0.2530    2.5730    5.1910 hn        1 MOL      0.305003
     16 H5          0.3630    1.4440    2.5450 h1        1 MOL      0.060448
     17 H6         -2.2800    2.0050    3.7690 hc        1 MOL     -0.019841
     18 H7         -1.5250    0.3960    3.4320 hc        1 MOL     -0.019841
     19 N2          0.4930    3.5810    1.3150 n         1 MOL     -0.474505
     20 C7          0.7800    4.7700    0.6010 c3        1 MOL      0.072227
     21 C8         -0.4100    5.3750   -0.1600 c         1 MOL      0.510989
     22 O5         -0.2670    6.5650   -0.5030 o         1 MOL     -0.573416
     23 C9          2.0500    4.6200   -0.2090 c3        1 MOL     -0.061188
     24 C10         2.6510    5.7880   -1.0260 c3        1 MOL     -0.133587
     25 C11         3.1490    6.8600   -0.1090 c3        1 MOL     -0.028515
     26 C12         3.9150    8.0200   -0.8170 c3        1 MOL      0.044879
     27 N3          3.1860    8.6960   -1.9060 n4        1 MOL     -0.353444
     28 H8          0.7750    2.6660    0.9890 hn        1 MOL      0.265144
     29 H9          1.0160    5.4620    1.4110 h1        1 MOL      0.072634
     30 H10         1.9770    3.8080   -0.9270 hc        1 MOL      0.090870
     31 H11         2.8330    4.2580    0.4550 hc        1 MOL      0.090870
     32 H12         1.9130    6.2240   -1.6860 hc        1 MOL      0.055067
     33 H13         3.4500    5.3570   -1.6320 hc        1 MOL      0.055067
     34 H14         3.8180    6.5180    0.6890 hc        1 MOL      0.048590
     35 H15         2.2820    7.2850    0.4060 hc        1 MOL      0.048590
     36 H16         4.7720    7.5640   -1.2950 hx        1 MOL      0.072322
     37 H17         4.3490    8.7850   -0.1740 hx        1 MOL      0.072322
     38 H18         3.8420    9.1940   -2.4880 hn        1 MOL      0.324412
     39 H19         2.5160    8.1520   -2.4200 hn        1 MOL      0.324412
     40 H20         2.6250    9.3850   -1.4270 hn        1 MOL      0.324412
     41 N4         -1.5770    4.6860   -0.3700 n         1 MOL     -0.441235
     42 C13        -2.7590    5.2170   -1.2060 c3        1 MOL      0.065100
     43 C14        -4.0610    4.7880   -0.5540 c         1 MOL      0.422020
     44 O6         -5.1160    5.0220   -1.2080 o         1 MOL     -0.521351
     45 C15        -2.6190    4.7840   -2.6500 c3        1 MOL     -0.111309
     46 C16        -2.2810    3.2900   -2.8820 c         1 MOL      0.723921
     47 O7         -1.7610    2.9910   -3.9960 o         1 MOL     -0.695331
     48 O8         -2.5750    2.3730   -2.0280 o         1 MOL     -0.695331
     49 H21        -1.5500    3.7220   -0.0920 hn        1 MOL      0.272026
     50 H22        -2.7420    6.3090   -1.2620 h1        1 MOL      0.100145
     51 H23        -1.8190    5.3870   -3.0780 hc        1 MOL      0.043369
     52 H24        -3.5490    5.0280   -3.1640 hc        1 MOL      0.043369
     53 N5         -4.0680    4.2390    0.6790 n         1 MOL     -0.285206
     54 C17        -5.2800    3.8930    1.4570 c3        1 MOL     -0.093560
     55 C18        -6.1360    2.7140    0.7400 c         1 MOL      0.436168
     56 O9         -7.3080    2.6050    1.0700 o         1 MOL     -0.558268
     57 H25        -3.1660    4.0830    1.1170 hn        1 MOL      0.210097
     58 H26        -5.9350    4.7470    1.6180 h1        1 MOL      0.104501
     59 H27        -4.9770    3.5690    2.4520 h1        1 MOL      0.104501
     60 N6         -5.6170    1.9490   -0.2050 n         1 MOL     -0.046082
     61 C19        -6.3540    1.0820   -1.0080 c3        1 MOL     -0.141102
     62 C20        -6.6740   -0.2390   -0.3260 c         1 MOL      0.294026
     63 O10        -7.3980   -1.0430   -0.9020 o         1 MOL     -0.478374
     64 C21        -5.7180    0.9680   -2.4050 c3        1 MOL     -0.111793
     65 C22        -4.5990   -0.0830   -2.4750 c         1 MOL      0.715136
     66 N7         -4.4200   -0.8560   -3.5500 n         1 MOL     -0.890356
     67 O11        -3.8090   -0.3860   -1.6060 o         1 MOL     -0.617654
     68 H28        -4.6290    2.0660   -0.3700 hn        1 MOL      0.105800
     69 H29        -7.3170    1.5600   -1.1800 h1        1 MOL      0.151518
     70 H30        -5.3480    1.9300   -2.7760 hc        1 MOL      0.070054
     71 H31        -6.4660    0.6930   -3.1390 hc        1 MOL      0.070054
     72 H32        -5.1410   -0.9650   -4.2460 hn        1 MOL      0.397474
     73 H33        -3.7480   -1.5960   -3.3760 hn        1 MOL      0.397474
     74 N8         -6.0370   -0.4810    0.8100 n         1 MOL      0.001532
     75 C23        -6.3140   -1.5540    1.8470 c3        1 MOL     -0.322912
     76 C24        -5.2410   -2.7180    1.8360 c         1 MOL      0.618596
     77 O12        -5.4490   -3.8130    2.4380 o         1 MOL     -0.539284
     78 H34        -5.2950    0.1730    1.0600 hn        1 MOL      0.210010
     79 H35        -7.2650   -2.0430    1.6340 h1        1 MOL      0.145482
     80 H36        -6.4630   -1.1040    2.8310 h1        1 MOL      0.145482
     81 N9         -4.1180   -2.5300    1.0890 n         1 MOL     -0.607894
     82 C25        -2.9800   -3.5080    0.8990 c3        1 MOL      0.403317
     83 C26        -1.6460   -2.8320    0.7900 c         1 MOL      0.304499
     84 O13        -1.3980   -1.7350    0.3120 o         1 MOL     -0.581240
     85 C27        -3.1810   -4.3490   -0.4030 c3        1 MOL     -0.160048
     86 C28        -4.5570   -5.0100   -0.4480 ca        1 MOL      0.068210
     87 C29        -5.7940   -4.4140   -0.9110 ca        1 MOL     -0.294267
     88 C30        -4.6030   -6.2750    0.0050 ca        1 MOL     -0.294267
     89 C31        -6.9740   -5.1590   -1.0850 ca        1 MOL      0.012116
     90 C32        -5.7910   -6.9910   -0.0400 ca        1 MOL      0.012116
     91 C33        -6.9080   -6.5190   -0.7210 ca        1 MOL      0.070595
     92 O14        -8.0090   -7.2880   -0.7220 oh        1 MOL     -0.401766
     93 H37        -4.1020   -1.7290    0.4700 hn        1 MOL      0.364175
     94 H38        -2.9810   -4.1730    1.7670 h1        1 MOL      0.027313
     95 H39        -2.3240   -5.0140   -0.4210 hc        1 MOL      0.066746
     96 H40        -3.2390   -3.7090   -1.2870 hc        1 MOL      0.066746
     97 H41        -5.7880   -3.3560   -1.1510 ha        1 MOL      0.132715
     98 H42        -3.6770   -6.7210    0.3240 ha        1 MOL      0.132715
     99 H43        -7.8740   -4.7310   -1.5030 ha        1 MOL      0.088563
    100 H44        -5.8150   -7.9990    0.3310 ha        1 MOL      0.088563
    101 H45        -7.8160   -8.2050   -0.5040 ho        1 MOL      0.326729
    102 N10        -0.5980   -3.5740    1.2120 n         1 MOL     -0.341870
    103 C34         0.8000   -3.0840    1.3040 c3        1 MOL     -0.079459
    104 C35         1.8150   -3.9560    0.5460 c         1 MOL      0.536552
    105 O15         2.0250   -5.1150    0.9320 o         1 MOL     -0.551585
    106 C36         1.2310   -2.9310    2.8450 c3        1 MOL      0.066740
    107 C37         0.1650   -2.1850    3.6890 c3        1 MOL      0.176283
    108 C38         2.6520   -2.2200    2.7610 c3        1 MOL     -0.170064
    109 C39         0.5230   -1.8990    5.1840 c3        1 MOL     -0.210810
    110 H46        -0.8300   -4.5030    1.5370 hn        1 MOL      0.263339
    111 H47         0.7780   -2.1190    0.7940 h1        1 MOL      0.088324
    112 H48         1.3740   -3.8490    3.4120 hc        1 MOL      0.020451
    113 H49        -0.7020   -2.8540    3.6990 hc        1 MOL     -0.026210
    114 H50        -0.1670   -1.2930    3.1490 hc        1 MOL     -0.026210
    115 H51         2.6120   -1.1770    2.4560 hc        1 MOL      0.047350
    116 H52         3.0940   -2.1910    3.7530 hc        1 MOL      0.047350
    117 H53         3.3420   -2.7660    2.1190 hc        1 MOL      0.047350
    118 H54         1.4100   -1.2650    5.2260 hc        1 MOL      0.045071
    119 H55        -0.3200   -1.4030    5.6570 hc        1 MOL      0.045071
    120 H56         0.7250   -2.8560    5.6650 hc        1 MOL      0.045071
    121 N11         2.3440   -3.4100   -0.5240 n         1 MOL     -0.388825
    122 C40         3.5300   -3.9530   -1.2500 c3        1 MOL      0.057005
    123 C41         4.8570   -3.7440   -0.4730 c         1 MOL      0.465700
    124 O16         4.9820   -2.8740    0.3670 o         1 MOL     -0.429287
    125 C42         3.5750   -3.5150   -2.6940 c3        1 MOL     -0.158204
    126 O17         4.3210   -2.4050   -3.0170 oh        1 MOL     -0.454913
    127 H57         1.9650   -2.5270   -0.8330 hn        1 MOL      0.274537
    128 H58         3.3010   -5.0240   -1.2250 h1        1 MOL      0.060112
    129 H59         2.5570   -3.2470   -2.9740 h1        1 MOL      0.104550
    130 H60         3.8240   -4.3700   -3.3160 h1        1 MOL      0.104550
    131 H61         4.1640   -2.2670   -3.9570 ho        1 MOL      0.391239
    132 N12         5.8940   -4.5120   -0.7360 n         1 MOL     -0.392820
    133 C43         7.2560   -4.2680   -0.2140 c3        1 MOL      0.129503
    134 C44         7.9090   -3.0870   -0.8890 c         1 MOL      0.523788
    135 O18         8.9200   -2.5580   -0.3780 o         1 MOL     -0.535886
    136 C45         8.0960   -5.5680   -0.3300 c3        1 MOL     -0.417670
    137 H62         5.7730   -5.2560   -1.4120 hn        1 MOL      0.257553
    138 H63         7.2440   -4.1150    0.8630 h1        1 MOL      0.130720
    139 H64         9.1570   -5.3090   -0.3210 hc        1 MOL      0.126200
    140 H65         7.6500   -6.1790    0.4570 hc        1 MOL      0.126200
    141 H66         7.9640   -6.1000   -1.2710 hc        1 MOL      0.126200
    142 N13         7.4390   -2.5270   -2.0640 n         1 MOL     -0.468635
    143 C46         7.7800   -1.1420   -2.4990 c3        1 MOL      0.250117
    144 C47         7.2070   -0.0740   -1.4990 c         1 MOL      0.262466
    145 O19         7.9070    0.8830   -1.1270 o         1 MOL     -0.502499
    146 C48         7.2160   -0.9590   -3.9190 c3        1 MOL     -0.246739
    147 H67         6.7510   -3.0490   -2.5900 hn        1 MOL      0.234748
    148 H68         8.8560   -1.0800   -2.6290 h1        1 MOL      0.068811
    149 H69         6.7560    0.0290   -3.9760 hc        1 MOL      0.059766
    150 H70         8.0170   -1.0290   -4.6470 hc        1 MOL      0.059766
    151 H71         6.3940   -1.6660   -4.0200 hc        1 MOL      0.059766
    152 N14         5.9990   -0.2960   -0.9100 n         1 MOL      0.030754
    153 C49         5.3950    0.7100    0.0040 c3        1 MOL     -0.257170
    154 C50         6.0270    0.7590    1.4040 c         1 MOL      0.479952
    155 O20         5.8030    1.7500    2.1200 o         1 MOL     -0.532642
    156 C51         3.7970    0.6920    0.0410 c3        1 MOL      0.140934
    157 C52         3.3170    0.8890   -1.4450 c3        1 MOL      0.146723
    158 C53         1.8080    0.6310   -1.6100 c         1 MOL      0.511063
    159 O21         1.0310    1.5740   -1.9200 o         1 MOL     -0.683007
    160 O22         1.2770   -0.4760   -1.2890 o         1 MOL     -0.683007
    161 H72         5.4180   -1.1010   -1.0530 hn        1 MOL      0.149310
    162 H73         5.7290    1.6400   -0.4540 h1        1 MOL      0.107666
    163 H74         3.5170    1.5630    0.6410 hc        1 MOL     -0.006910
    164 H75         3.4580   -0.2540    0.4840 hc        1 MOL     -0.006910
    165 H76         3.9540    0.3710   -2.1600 hc        1 MOL     -0.067046
    166 H77         3.4740    1.9450   -1.6580 hc        1 MOL     -0.067046
    167 N15         6.6430   -0.3510    1.8850 n         1 MOL     -0.090824
    168 C54         7.5000   -0.5010    3.0550 c3        1 MOL     -0.225012
    169 H78         6.9030   -0.3830    3.9590 h1        1 MOL      0.097794
    170 H79         7.9570   -1.4900    3.0480 h1        1 MOL      0.097794
    171 H80         8.2810    0.2600    3.0340 h1        1 MOL      0.097794
    172 H81         6.4530   -1.1710    1.3240 hn        1 MOL      0.078365
    173 Ca1        -1.3460    0.2230   -1.5500 Ca        1 MOL      1.757935
    174 O23        -1.3070   -2.0650   -2.8510 oh        1 MOL     -0.875586
    175 H82        -1.2090   -2.9800   -2.5780 ho        1 MOL      0.410380
    176 H83        -0.6990   -1.9720   -3.5840 ho        1 MOL      0.410380
    177 O24        -1.3960    0.5960   -4.1670 oh        1 MOL     -0.875586
    178 H84        -1.5990    1.5220   -4.2800 ho        1 MOL      0.410380
    179 H85        -1.4720    0.2300   -5.0450 ho        1 MOL      0.410380
@<TRIPOS>BOND
     1    1    2 1   
     2    1    4 1   
     3    1    5 1   
     4    1    6 1   
     5    2    3 2   
     6    2    7 1   
     7    7    8 1   
     8    7   15 1   
     9    8    9 1   
    10    8   11 1   
    11    8   16 1   
    12    9   10 2   
    13    9   19 1   
    14   11   12 1   
    15   11   17 1   
    16   11   18 1   
    17   12   13 1   
    18   12   14 1   
    19   19   20 1   
    20   19   28 1   
    21   20   21 1   
    22   20   23 1   
    23   20   29 1   
    24   21   22 2   
    25   21   41 1   
    26   23   24 1   
    27   23   30 1   
    28   23   31 1   
    29   24   25 1   
    30   24   32 1   
    31   24   33 1   
    32   25   26 1   
    33   25   34 1   
    34   25   35 1   
    35   26   27 1   
    36   26   36 1   
    37   26   37 1   
    38   27   38 1   
    39   27   39 1   
    40   27   40 1   
    41   41   42 1   
    42   41   49 1   
    43   42   43 1   
    44   42   45 1   
    45   42   50 1   
    46   43   44 2   
    47   43   53 1   
    48   45   46 1   
    49   45   51 1   
    50   45   52 1   
    51   46   47 1   
    52   46   48 1   
    53   53   54 1   
    54   53   57 1   
    55   54   55 1   
    56   54   58 1   
    57   54   59 1   
    58   55   56 2   
    59   55   60 1   
    60   60   61 1   
    61   60   68 1   
    62   61   62 1   
    63   61   64 1   
    64   61   69 1   
    65   62   63 2   
    66   62   74 1   
    67   64   65 1   
    68   64   70 1   
    69   64   71 1   
    70   65   66 1   
    71   65   67 2   
    72   66   72 1   
    73   66   73 1   
    74   74   75 1   
    75   74   78 1   
    76   75   76 1   
    77   75   79 1   
    78   75   80 1   
    79   76   77 2   
    80   76   81 1   
    81   81   82 1   
    82   81   93 1   
    83   82   83 1   
    84   82   85 1   
    85   82   94 1   
    86   83   84 2   
    87   83  102 1   
    88   85   86 1   
    89   85   95 1   
    90   85   96 1   
    91   86   87 ar  
    92   86   88 ar  
    93   87   89 ar  
    94   87   97 1   
    95   88   90 ar  
    96   88   98 1   
    97   89   91 ar  
    98   89   99 1   
    99   90   91 ar  
   100   90  100 1   
   101   91   92 1   
   102   92  101 1   
   103  102  103 1   
   104  102  110 1   
   105  103  104 1   
   106  103  106 1   
   107  103  111 1   
   108  104  105 2   
   109  104  121 1   
   110  106  107 1   
   111  106  108 1   
   112  106  112 1   
   113  107  109 1   
   114  107  113 1   
   115  107  114 1   
   116  108  115 1   
   117  108  116 1   
   118  108  117 1   
   119  109  118 1   
   120  109  119 1   
   121  109  120 1   
   122  121  122 1   
   123  121  127 1   
   124  122  123 1   
   125  122  125 1   
   126  122  128 1   
   127  123  124 2   
   128  123  132 1   
   129  125  126 1   
   130  125  129 1   
   131  125  130 1   
   132  126  131 1   
   133  132  133 1   
   134  132  137 1   
   135  133  134 1   
   136  133  136 1   
   137  133  138 1   
   138  134  135 2   
   139  134  142 1   
   140  136  139 1   
   141  136  140 1   
   142  136  141 1   
   143  142  143 1   
   144  142  147 1   
   145  143  144 1   
   146  143  146 1   
   147  143  148 1   
   148  144  145 2   
   149  144  152 1   
   150  146  149 1   
   151  146  150 1   
   152  146  151 1   
   153  152  153 1   
   154  152  161 1   
   155  153  154 1   
   156  153  156 1   
   157  153  162 1   
   158  154  155 2   
   159  154  167 1   
   160  156  157 1   
   161  156  163 1   
   162  156  164 1   
   163  157  158 1   
   164  157  165 1   
   165  157  166 1   
   166  158  159 1   
   167  158  160 1   
   168  167  168 1   
   169  167  172 1   
   170  168  169 1   
   171  168  170 1   
   172  168  171 1   
   173  174  175 1   
   174  174  176 1   
   175  177  178 1   
   176  177  179 1   
@<TRIPOS>SUBSTRUCTURE
     1 MOL         1 TEMP              0 ****  ****    0 ROOT
