@<TRIPOS>MOLECULE
MOL
  179   176     1     0     0
SMALL
resp


@<TRIPOS>ATOM
      1 C1          2.1820    1.8290    6.2310 c3        1 MOL     -0.478903
      2 C2          1.6910    1.8870    4.7600 c         1 MOL      0.780287
      3 O1          2.4940    1.9610    3.8860 o         1 MOL     -0.591589
      4 H1          2.6170    0.8500    6.4300 hc        1 MOL      0.123385
      5 H2          2.9340    2.6010    6.3940 hc        1 MOL      0.123385
      6 H3          1.3390    1.9950    6.9020 hc        1 MOL      0.123385
      7 N1          0.3800    1.9940    4.4720 n         1 MOL     -0.645206
      8 C3         -0.1250    2.0220    3.1420 c3        1 MOL      0.227185
      9 C4          0.0260    3.3540    2.4710 c         1 MOL      0.551521
     10 O2         -0.5580    4.3780    2.7880 o         1 MOL     -0.533454
     11 C5         -1.5700    1.4480    3.1570 c3        1 MOL     -0.042987
     12 C6         -2.3500    1.4520    1.8170 c         1 MOL      0.795400
     13 O3         -3.5360    1.0510    1.8560 o         1 MOL     -0.746071
     14 O4         -1.8380    1.8140    0.7220 o         1 MOL     -0.746071
     15 H4         -0.2750    1.9490    5.2330 hn        1 MOL      0.326029
     16 H5          0.3910    1.2640    2.5500 h1        1 MOL     -0.220030
     17 H6         -2.1060    2.0750    3.8650 hc        1 MOL      0.004448
     18 H7         -1.4960    0.4210    3.5100 hc        1 MOL      0.004448
     19 N2          0.8940    3.3150    1.4160 n         1 MOL     -0.156211
     20 C7          1.4060    4.5230    0.8360 c3        1 MOL     -0.138500
     21 C8          0.2610    5.3290    0.1760 c         1 MOL      0.450126
     22 O5          0.3210    6.5590    0.1340 o         1 MOL     -0.564261
     23 C9          2.4340    4.2150   -0.2440 c3        1 MOL     -0.064790
     24 C10         3.1650    5.4560   -0.8300 c3        1 MOL     -0.232339
     25 C11         4.2750    4.9810   -1.7940 c3        1 MOL     -0.010256
     26 C12         5.0000    6.1970   -2.3940 c3        1 MOL      0.079497
     27 N3          6.1830    5.8490   -3.2830 n4        1 MOL     -0.444026
     28 H8          1.4530    2.4910    1.2530 hn        1 MOL      0.222526
     29 H9          1.9970    5.0530    1.5800 h1        1 MOL      0.099520
     30 H10         1.9340    3.7260   -1.0800 hc        1 MOL      0.132558
     31 H11         3.1680    3.5480    0.2140 hc        1 MOL      0.132558
     32 H12         3.6800    6.0610   -0.0820 hc        1 MOL      0.095855
     33 H13         2.4920    6.1470   -1.3360 hc        1 MOL      0.095855
     34 H14         3.8490    4.3230   -2.5470 hc        1 MOL      0.040994
     35 H15         5.0620    4.3980   -1.3190 hc        1 MOL      0.040994
     36 H16         5.4060    6.7550   -1.5410 hx        1 MOL      0.080655
     37 H17         4.3190    6.9500   -2.7990 hx        1 MOL      0.080655
     38 H18         6.9380    5.4070   -2.7730 hn        1 MOL      0.343598
     39 H19         5.9680    5.2740   -4.0830 hn        1 MOL      0.343598
     40 H20         6.5620    6.6250   -3.8130 hn        1 MOL      0.343598
     41 N4         -0.6960    4.6620   -0.4250 n         1 MOL     -0.037335
     42 C13        -1.8090    5.2690   -1.1800 c3        1 MOL      0.000102
     43 C14        -3.1560    5.2790   -0.4160 c         1 MOL      0.495522
     44 O6         -4.0590    6.0630   -0.7630 o         1 MOL     -0.553612
     45 C15        -1.9560    4.6460   -2.5430 c3        1 MOL     -0.050655
     46 C16        -1.8320    3.1680   -2.4100 c         1 MOL      0.694276
     47 O7         -0.7020    2.6640   -2.6280 o         1 MOL     -0.755364
     48 O8         -2.7590    2.5460   -1.9450 o         1 MOL     -0.755364
     49 H21        -0.5930    3.6630   -0.4220 hn        1 MOL     -0.117897
     50 H22        -1.5910    6.3300   -1.2790 h1        1 MOL      0.078567
     51 H23        -1.3290    5.0800   -3.3190 hc        1 MOL      0.020558
     52 H24        -2.9280    4.9590   -2.9020 hc        1 MOL      0.020558
     53 N5         -3.3370    4.3840    0.5940 n         1 MOL     -0.235937
     54 C17        -4.6030    4.1450    1.2680 c3        1 MOL     -0.310105
     55 C18        -5.6190    3.1580    0.6150 c         1 MOL      0.630565
     56 O9         -6.6910    2.9930    1.1820 o         1 MOL     -0.606960
     57 H25        -2.6660    3.6440    0.7330 hn        1 MOL      0.224180
     58 H26        -5.2130    5.0360    1.3770 h1        1 MOL      0.144233
     59 H27        -4.2850    3.8350    2.2620 h1        1 MOL      0.144233
     60 N6         -5.3360    2.5210   -0.5080 n         1 MOL     -0.402847
     61 C19        -6.3020    1.6750   -1.2050 c3        1 MOL      0.196569
     62 C20        -6.7130    0.3790   -0.4270 c         1 MOL      0.223363
     63 O10        -7.7170   -0.2280   -0.7630 o         1 MOL     -0.489757
     64 C21        -5.7110    1.3530   -2.5760 c3        1 MOL     -0.385781
     65 C22        -4.8360    0.1390   -2.6590 c         1 MOL      0.764552
     66 N7         -5.0630   -0.7090   -3.6140 n         1 MOL     -0.570594
     67 O11        -3.9600   -0.2100   -1.9280 o         1 MOL     -0.778190
     68 H28        -4.4190    2.6540   -0.9150 hn        1 MOL      0.288277
     69 H29        -7.1810    2.3100   -1.2780 h1        1 MOL      0.090059
     70 H30        -5.1870    2.2110   -2.9810 hc        1 MOL      0.110150
     71 H31        -6.6230    1.1750   -3.1470 hc        1 MOL      0.110150
     72 H32        -5.7410   -0.5260   -4.3390 hn        1 MOL      0.295763
     73 H33        -4.3530   -1.4290   -3.7120 hn        1 MOL      0.295763
     74 N8         -6.0740    0.0620    0.7150 n         1 MOL      0.159720
     75 C23        -6.4700   -0.9320    1.7620 c3        1 MOL     -0.511489
     76 C24        -5.4450   -1.9870    1.8750 c         1 MOL      0.802351
     77 O12        -5.7350   -3.0030    2.5230 o         1 MOL     -0.608134
     78 H34        -5.1920    0.5200    0.9510 hn        1 MOL      0.177266
     79 H35        -7.3980   -1.3980    1.4360 h1        1 MOL      0.191000
     80 H36        -6.5910   -0.4530    2.7240 h1        1 MOL      0.191000
     81 N9         -4.2610   -1.9810    1.2310 n         1 MOL     -0.625034
     82 C25        -3.3640   -3.0820    0.9000 c3        1 MOL      0.338954
     83 C26        -1.9410   -2.5220    0.7730 c         1 MOL      0.405444
     84 O13        -1.7640   -1.3560    0.4250 o         1 MOL     -0.483753
     85 C27        -3.7100   -3.6600   -0.4830 c3        1 MOL      0.014233
     86 C28        -5.1110   -4.2610   -0.6030 ca        1 MOL     -0.149816
     87 C29        -6.1780   -3.4150   -0.8480 ca        1 MOL      0.030732
     88 C30        -5.3410   -5.6480   -0.3800 ca        1 MOL      0.030732
     89 C31        -7.4760   -3.9000   -0.7400 ca        1 MOL     -0.458282
     90 C32        -6.6390   -6.2180   -0.5160 ca        1 MOL     -0.458282
     91 C33        -7.7010   -5.3000   -0.5380 ca        1 MOL      0.550050
     92 O14        -8.9880   -5.7550   -0.3640 oh        1 MOL     -0.517382
     93 H37        -4.1470   -1.2730    0.5160 hn        1 MOL      0.289687
     94 H38        -3.4260   -3.9620    1.5440 h1        1 MOL      0.013688
     95 H39        -2.9960   -4.4600   -0.6910 hc        1 MOL     -0.007066
     96 H40        -3.7320   -2.9210   -1.2790 hc        1 MOL     -0.007066
     97 H41        -5.9450   -2.3720   -0.9620 ha        1 MOL      0.080424
     98 H42        -4.4890   -6.2950   -0.2120 ha        1 MOL      0.080424
     99 H43        -8.3570   -3.2930   -0.8890 ha        1 MOL      0.184525
    100 H44        -6.8690   -7.2530   -0.3140 ha        1 MOL      0.184525
    101 H45        -8.9830   -6.6640   -0.0670 ho        1 MOL      0.352373
    102 N10        -0.9410   -3.3770    1.0410 n         1 MOL     -0.513788
    103 C34         0.4760   -3.0340    0.8040 c3        1 MOL      0.065831
    104 C35         1.2800   -4.0110   -0.0390 c         1 MOL      0.385028
    105 O15         1.1830   -5.2420    0.1650 o         1 MOL     -0.544112
    106 C36         1.3520   -2.7640    2.0760 c3        1 MOL     -0.062425
    107 C37         1.3690   -3.8520    3.1370 c3        1 MOL     -0.025100
    108 C38         0.9590   -1.4710    2.7090 c3        1 MOL     -0.195487
    109 C39         2.1280   -3.6050    4.5180 c3        1 MOL     -0.145046
    110 H46        -1.1440   -4.2940    1.4180 hn        1 MOL      0.335038
    111 H47         0.4780   -2.0760    0.2950 h1        1 MOL     -0.007988
    112 H48         2.3530   -2.5590    1.6950 hc        1 MOL      0.003004
    113 H49         1.8240   -4.7140    2.6500 hc        1 MOL      0.039723
    114 H50         0.3710   -4.2820    3.2940 hc        1 MOL      0.039723
    115 H51         1.7480   -1.0460    3.3300 hc        1 MOL      0.109913
    116 H52         0.7440   -0.7130    1.9580 hc        1 MOL      0.109913
    117 H53         0.0380   -1.5510    3.2700 hc        1 MOL      0.109913
    118 H54         3.0200   -2.9760    4.4490 hc        1 MOL      0.037877
    119 H55         1.4510   -3.0130    5.1400 hc        1 MOL      0.037877
    120 H56         2.3850   -4.5520    4.9850 hc        1 MOL      0.037877
    121 N11         2.1680   -3.4380   -0.8150 n         1 MOL     -0.104870
    122 C40         3.3160   -4.1270   -1.4390 c3        1 MOL     -0.068865
    123 C41         4.4960   -3.7990   -0.6210 c         1 MOL      0.467737
    124 O16         4.5980   -2.9070    0.2460 o         1 MOL     -0.415570
    125 C42         3.3770   -3.6120   -2.8860 c3        1 MOL      0.285737
    126 O17         2.1890   -3.8140   -3.4670 oh        1 MOL     -0.575529
    127 H57         2.0570   -2.4560   -1.0300 hn        1 MOL      0.260741
    128 H58         3.1530   -5.2030   -1.3980 h1        1 MOL      0.069031
    129 H59         4.1880   -4.1290   -3.3840 h1        1 MOL      0.002517
    130 H60         3.5650   -2.5440   -2.9850 h1        1 MOL      0.002517
    131 H61         1.4900   -3.9160   -2.8150 ho        1 MOL      0.336924
    132 N12         5.5740   -4.4200   -1.0670 n         1 MOL     -0.459496
    133 C43         6.8960   -4.3100   -0.5020 c3        1 MOL      0.276808
    134 C44         7.5730   -3.0500   -0.7280 c         1 MOL      0.387720
    135 O18         8.1220   -2.4600    0.2190 o         1 MOL     -0.512201
    136 C45         7.6940   -5.5230   -1.0100 c3        1 MOL     -0.516825
    137 H62         5.4400   -5.0910   -1.8130 hn        1 MOL      0.285083
    138 H63         6.7630   -4.4220    0.5760 h1        1 MOL      0.073253
    139 H64         8.7540   -5.2760   -0.9720 hc        1 MOL      0.149285
    140 H65         7.6260   -6.3090   -0.2590 hc        1 MOL      0.149285
    141 H66         7.3910   -5.7940   -2.0210 hc        1 MOL      0.149285
    142 N13         7.4150   -2.3530   -1.8900 n         1 MOL     -0.336592
    143 C46         7.8310   -0.9400   -2.0080 c3        1 MOL      0.054876
    144 C47         7.1060    0.1030   -1.0460 c         1 MOL      0.396046
    145 O19         7.5530    1.2120   -1.0130 o         1 MOL     -0.531259
    146 C48         7.4990   -0.5330   -3.4550 c3        1 MOL     -0.340023
    147 H67         6.8450   -2.7500   -2.6290 hn        1 MOL      0.207415
    148 H68         8.9170   -0.9620   -1.8790 h1        1 MOL      0.120217
    149 H69         7.6290    0.5350   -3.6130 hc        1 MOL      0.098825
    150 H70         8.2380   -1.0690   -4.0560 hc        1 MOL      0.098825
    151 H71         6.4850   -0.7990   -3.7680 hc        1 MOL      0.098825
    152 N14         5.9590   -0.2300   -0.4820 n         1 MOL     -0.102017
    153 C49         5.2450    0.6040    0.5760 c3        1 MOL      0.048586
    154 C50         5.6580    0.2770    1.9930 c         1 MOL      0.562890
    155 O20         6.0530    1.1660    2.6820 o         1 MOL     -0.543232
    156 C51         3.7180    0.3320    0.4020 c3        1 MOL     -0.167224
    157 C52         3.1590    0.6630   -0.9430 c3        1 MOL      0.127153
    158 C53         1.6770    0.2850   -0.9280 c         1 MOL      0.743900
    159 O21         0.7920    0.9740   -0.3300 o         1 MOL     -0.760687
    160 O22         1.3700   -0.7270   -1.6430 o         1 MOL     -0.760687
    161 H72         5.5900   -1.1640   -0.5450 hn        1 MOL      0.079061
    162 H73         5.4500    1.6670    0.5410 h1        1 MOL      0.027555
    163 H74         3.2390    0.9640    1.1600 hc        1 MOL      0.047809
    164 H75         3.5510   -0.7160    0.6420 hc        1 MOL      0.047809
    165 H76         3.6400    0.0250   -1.6920 hc        1 MOL     -0.082892
    166 H77         3.3260    1.7100   -1.1820 hc        1 MOL     -0.082892
    167 N15         5.7140   -0.9890    2.3810 n         1 MOL     -0.170815
    168 C54         6.3910   -1.3770    3.5300 c3        1 MOL     -0.370088
    169 H78         6.1270   -2.4050    3.7770 h1        1 MOL      0.132954
    170 H79         7.4660   -1.3100    3.3590 h1        1 MOL      0.132954
    171 H80         6.1120   -0.7220    4.3560 h1        1 MOL      0.132954
    172 H81         5.3740   -1.6730    1.7220 hn        1 MOL      0.184261
    173 Ca1        -1.4670    0.3860   -1.4020 Ca        1 MOL      1.789033
    174 O23        -1.4880   -2.0610   -2.2710 oh        1 MOL     -0.859542
    175 H82        -1.8690   -1.9730   -3.1370 ho        1 MOL      0.429993
    176 H83        -1.3230   -3.0000   -2.1740 ho        1 MOL      0.429993
    177 O24        -1.6700   -0.0280   -4.0610 oh        1 MOL     -0.859542
    178 H84        -0.9170   -0.1510   -4.6500 ho        1 MOL      0.429993
    179 H85        -2.0810    0.7850   -4.3720 ho        1 MOL      0.429993
@<TRIPOS>BOND
     1    1    2 1   
     2    1    4 1   
     3    1    5 1   
     4    1    6 1   
     5    2    3 2   
     6    2    7 1   
     7    7    8 1   
     8    7   15 1   
     9    8    9 1   
    10    8   11 1   
    11    8   16 1   
    12    9   10 2   
    13    9   19 1   
    14   11   12 1   
    15   11   17 1   
    16   11   18 1   
    17   12   13 1   
    18   12   14 1   
    19   19   20 1   
    20   19   28 1   
    21   20   21 1   
    22   20   23 1   
    23   20   29 1   
    24   21   22 2   
    25   21   41 1   
    26   23   24 1   
    27   23   30 1   
    28   23   31 1   
    29   24   25 1   
    30   24   32 1   
    31   24   33 1   
    32   25   26 1   
    33   25   34 1   
    34   25   35 1   
    35   26   27 1   
    36   26   36 1   
    37   26   37 1   
    38   27   38 1   
    39   27   39 1   
    40   27   40 1   
    41   41   42 1   
    42   41   49 1   
    43   42   43 1   
    44   42   45 1   
    45   42   50 1   
    46   43   44 2   
    47   43   53 1   
    48   45   46 1   
    49   45   51 1   
    50   45   52 1   
    51   46   47 1   
    52   46   48 1   
    53   53   54 1   
    54   53   57 1   
    55   54   55 1   
    56   54   58 1   
    57   54   59 1   
    58   55   56 2   
    59   55   60 1   
    60   60   61 1   
    61   60   68 1   
    62   61   62 1   
    63   61   64 1   
    64   61   69 1   
    65   62   63 2   
    66   62   74 1   
    67   64   65 1   
    68   64   70 1   
    69   64   71 1   
    70   65   66 1   
    71   65   67 2   
    72   66   72 1   
    73   66   73 1   
    74   74   75 1   
    75   74   78 1   
    76   75   76 1   
    77   75   79 1   
    78   75   80 1   
    79   76   77 2   
    80   76   81 1   
    81   81   82 1   
    82   81   93 1   
    83   82   83 1   
    84   82   85 1   
    85   82   94 1   
    86   83   84 2   
    87   83  102 1   
    88   85   86 1   
    89   85   95 1   
    90   85   96 1   
    91   86   87 ar  
    92   86   88 ar  
    93   87   89 ar  
    94   87   97 1   
    95   88   90 ar  
    96   88   98 1   
    97   89   91 ar  
    98   89   99 1   
    99   90   91 ar  
   100   90  100 1   
   101   91   92 1   
   102   92  101 1   
   103  102  103 1   
   104  102  110 1   
   105  103  104 1   
   106  103  106 1   
   107  103  111 1   
   108  104  105 2   
   109  104  121 1   
   110  106  107 1   
   111  106  108 1   
   112  106  112 1   
   113  107  109 1   
   114  107  113 1   
   115  107  114 1   
   116  108  115 1   
   117  108  116 1   
   118  108  117 1   
   119  109  118 1   
   120  109  119 1   
   121  109  120 1   
   122  121  122 1   
   123  121  127 1   
   124  122  123 1   
   125  122  125 1   
   126  122  128 1   
   127  123  124 2   
   128  123  132 1   
   129  125  126 1   
   130  125  129 1   
   131  125  130 1   
   132  126  131 1   
   133  132  133 1   
   134  132  137 1   
   135  133  134 1   
   136  133  136 1   
   137  133  138 1   
   138  134  135 2   
   139  134  142 1   
   140  136  139 1   
   141  136  140 1   
   142  136  141 1   
   143  142  143 1   
   144  142  147 1   
   145  143  144 1   
   146  143  146 1   
   147  143  148 1   
   148  144  145 2   
   149  144  152 1   
   150  146  149 1   
   151  146  150 1   
   152  146  151 1   
   153  152  153 1   
   154  152  161 1   
   155  153  154 1   
   156  153  156 1   
   157  153  162 1   
   158  154  155 2   
   159  154  167 1   
   160  156  157 1   
   161  156  163 1   
   162  156  164 1   
   163  157  158 1   
   164  157  165 1   
   165  157  166 1   
   166  158  159 1   
   167  158  160 1   
   168  167  168 1   
   169  167  172 1   
   170  168  169 1   
   171  168  170 1   
   172  168  171 1   
   173  174  175 1   
   174  174  176 1   
   175  177  178 1   
   176  177  179 1   
@<TRIPOS>SUBSTRUCTURE
     1 MOL         1 TEMP              0 ****  ****    0 ROOT
