@<TRIPOS>MOLECULE
MOL
  179   176     1     0     0
SMALL
resp


@<TRIPOS>ATOM
      1 C1          2.0000    3.4260    4.2700 c3        1 MOL     -0.673621
      2 C2          1.1670    3.3570    2.9850 c         1 MOL      0.666969
      3 O1          1.6310    3.8160    1.9270 o         1 MOL     -0.572393
      4 H1          1.6550    2.6640    4.9680 hc        1 MOL      0.169341
      5 H2          3.0500    3.2520    4.0320 hc        1 MOL      0.169341
      6 H3          1.8890    4.4110    4.7240 hc        1 MOL      0.169341
      7 N1         -0.0590    2.9160    3.1970 n         1 MOL     -0.418644
      8 C3         -1.0660    2.6940    2.1830 c3        1 MOL      0.183889
      9 C4         -1.7470    4.0110    1.7470 c         1 MOL      0.286377
     10 O2         -2.8100    4.4700    2.1810 o         1 MOL     -0.470693
     11 C5         -2.1200    1.5980    2.6280 c3        1 MOL     -0.191404
     12 C6         -3.1650    1.2110    1.5860 c         1 MOL      0.834093
     13 O3         -2.7760    1.2990    0.4190 o         1 MOL     -0.725186
     14 O4         -4.2200    0.6140    1.8760 o         1 MOL     -0.725186
     15 H4         -0.1400    2.6720    4.1690 hn        1 MOL      0.271203
     16 H5         -0.4990    2.2770    1.3490 h1        1 MOL     -0.059133
     17 H6         -2.6880    2.1120    3.3930 hc        1 MOL      0.041007
     18 H7         -1.5930    0.6790    2.9090 hc        1 MOL      0.041007
     19 N2         -1.1560    4.5510    0.6610 n         1 MOL     -0.194342
     20 C7         -1.5260    5.9420    0.1670 c3        1 MOL      0.317821
     21 C8         -2.6610    5.9520   -0.8460 c         1 MOL      0.342115
     22 O5         -3.5090    6.8120   -0.8590 o         1 MOL     -0.524036
     23 C9         -0.3650    6.7090   -0.4530 c3        1 MOL     -0.480499
     24 C10         0.5050    7.3210    0.7470 c3        1 MOL      0.186973
     25 C11         1.8320    7.7450    0.1190 c3        1 MOL     -0.198241
     26 C12         2.9100    8.3310    1.0610 c3        1 MOL      0.024853
     27 N3          3.3990    7.3040    2.0380 n4        1 MOL     -0.428924
     28 H8         -0.3560    4.0870    0.2440 hn        1 MOL      0.267013
     29 H9         -1.8560    6.5120    1.0370 h1        1 MOL      0.003776
     30 H10        -0.8180    7.5330   -0.9980 hc        1 MOL      0.144422
     31 H11         0.2220    6.0050   -1.0590 hc        1 MOL      0.144422
     32 H12         0.6580    6.5070    1.4620 hc        1 MOL     -0.003380
     33 H13         0.0130    8.2030    1.1520 hc        1 MOL     -0.003380
     34 H14         1.5240    8.5770   -0.5270 hc        1 MOL      0.097423
     35 H15         2.2890    6.9550   -0.4720 hc        1 MOL      0.097423
     36 H16         2.4520    9.1610    1.5830 hx        1 MOL      0.086068
     37 H17         3.7740    8.7440    0.5490 hx        1 MOL      0.086068
     38 H18         4.3260    7.6030    2.3090 hn        1 MOL      0.351298
     39 H19         2.8380    7.3330    2.8740 hn        1 MOL      0.351298
     40 H20         3.6190    6.4340    1.5810 hn        1 MOL      0.351298
     41 N4         -2.7960    4.8150   -1.5370 n         1 MOL     -0.239030
     42 C13        -4.0400    4.5110   -2.3620 c3        1 MOL     -0.011501
     43 C14        -5.2260    3.8810   -1.6250 c         1 MOL      0.390572
     44 O6         -6.2970    3.8070   -2.2590 o         1 MOL     -0.525807
     45 C15        -3.5760    3.7580   -3.5770 c3        1 MOL     -0.097543
     46 C16        -2.8290    2.4930   -3.2010 c         1 MOL      0.648486
     47 O7         -3.3480    1.3010   -3.2390 o         1 MOL     -0.718104
     48 O8         -1.6470    2.5650   -2.8510 o         1 MOL     -0.718104
     49 H21        -1.9790    4.2280   -1.5380 hn        1 MOL      0.162830
     50 H22        -4.3790    5.4650   -2.7530 h1        1 MOL      0.113319
     51 H23        -2.9410    4.4100   -4.1750 hc        1 MOL      0.042542
     52 H24        -4.4160    3.5510   -4.2360 hc        1 MOL      0.042542
     53 N5         -5.0350    3.4170   -0.3880 n         1 MOL      0.072182
     54 C17        -6.0580    3.0820    0.6150 c3        1 MOL     -0.241567
     55 C18        -6.8700    1.7960    0.3720 c         1 MOL      0.601415
     56 O9         -8.0580    1.7350    0.6560 o         1 MOL     -0.568913
     57 H25        -4.0560    3.4580   -0.1340 hn        1 MOL      0.014086
     58 H26        -6.7840    3.8890    0.6450 h1        1 MOL      0.114102
     59 H27        -5.6080    2.9510    1.5890 h1        1 MOL      0.114102
     60 N6         -6.2170    0.7310   -0.1430 n         1 MOL     -0.281792
     61 C19        -6.8120   -0.5110   -0.5810 c3        1 MOL     -0.027610
     62 C20        -6.7440   -1.6750    0.4260 c         1 MOL      0.370483
     63 O10        -7.4880   -2.6550    0.2420 o         1 MOL     -0.531615
     64 C21        -6.2200   -0.8260   -2.0290 c3        1 MOL     -0.131288
     65 C22        -4.8530   -1.4760   -2.0440 c         1 MOL      0.554490
     66 N7         -4.7400   -2.6440   -2.5420 n         1 MOL     -0.683476
     67 O11        -3.8770   -1.0190   -1.4740 o         1 MOL     -0.549861
     68 H28        -5.2160    0.8320   -0.2020 hn        1 MOL      0.076739
     69 H29        -7.8680   -0.3730   -0.7880 h1        1 MOL      0.136472
     70 H30        -6.1790    0.0590   -2.6770 hc        1 MOL      0.077807
     71 H31        -7.0050   -1.3910   -2.5360 hc        1 MOL      0.077807
     72 H32        -5.4890   -3.2110   -2.9220 hn        1 MOL      0.350006
     73 H33        -3.7820   -2.9410   -2.6110 hn        1 MOL      0.350006
     74 N8         -5.9590   -1.5770    1.5060 n         1 MOL     -0.128521
     75 C23        -5.5700   -2.5260    2.5650 c3        1 MOL     -0.281232
     76 C24        -4.3490   -3.3650    2.3470 c         1 MOL      0.596880
     77 O12        -4.0200   -4.1840    3.2390 o         1 MOL     -0.588531
     78 H34        -5.4530   -0.7040    1.5510 hn        1 MOL      0.238314
     79 H35        -6.3590   -3.2690    2.5760 h1        1 MOL      0.134978
     80 H36        -5.5870   -2.0450    3.5340 h1        1 MOL      0.134978
     81 N9         -3.5660   -3.1300    1.2960 n         1 MOL     -0.186070
     82 C25        -2.2430   -3.7460    1.1350 c3        1 MOL      0.005055
     83 C26        -1.1080   -2.7790    1.0000 c         1 MOL      0.421436
     84 O13        -1.3080   -1.6750    0.4670 o         1 MOL     -0.577891
     85 C27        -2.1960   -4.7560   -0.0170 c3        1 MOL      0.171292
     86 C28        -3.1410   -5.9380    0.0480 ca        1 MOL     -0.137727
     87 C29        -4.3910   -5.7160   -0.4730 ca        1 MOL     -0.023938
     88 C30        -2.7940   -7.1680    0.6420 ca        1 MOL     -0.023938
     89 C31        -5.3330   -6.7680   -0.5930 ca        1 MOL     -0.404938
     90 C32        -3.7610   -8.2380    0.6640 ca        1 MOL     -0.404938
     91 C33        -5.0400   -8.0100   -0.0020 ca        1 MOL      0.470077
     92 O14        -5.9490   -9.0680   -0.1080 oh        1 MOL     -0.515791
     93 H37        -3.9960   -2.6290    0.5390 hn        1 MOL      0.177920
     94 H38        -2.0020   -4.3020    2.0410 h1        1 MOL      0.053663
     95 H39        -1.2220   -5.2400   -0.0280 hc        1 MOL     -0.016835
     96 H40        -2.2650   -4.3540   -1.0230 hc        1 MOL     -0.016835
     97 H41        -4.6040   -4.7450   -0.9050 ha        1 MOL      0.100873
     98 H42        -1.8270   -7.3680    1.0860 ha        1 MOL      0.100873
     99 H43        -6.3860   -6.6520   -0.7910 ha        1 MOL      0.190384
    100 H44        -3.5290   -9.1470    1.2060 ha        1 MOL      0.190384
    101 H45        -5.4860   -9.9020    0.0180 ho        1 MOL      0.355299
    102 N10         0.1430   -3.1680    1.4420 n         1 MOL     -0.297526
    103 C34         1.3710   -2.5490    1.1110 c3        1 MOL     -0.042074
    104 C35         2.5130   -3.4670    0.6750 c         1 MOL      0.478729
    105 O15         2.4920   -4.6550    0.9810 o         1 MOL     -0.548615
    106 C36         1.8560   -1.6090    2.2400 c3        1 MOL     -0.000234
    107 C37         2.1910   -2.4110    3.5160 c3        1 MOL     -0.056062
    108 C38         0.6990   -0.5720    2.5150 c3        1 MOL      0.004686
    109 C39         2.7300   -1.4980    4.6640 c3        1 MOL     -0.186892
    110 H46         0.2620   -4.0520    1.9050 hn        1 MOL      0.254582
    111 H47         1.2610   -1.8920    0.2390 h1        1 MOL      0.081110
    112 H48         2.7780   -1.1470    1.9080 hc        1 MOL      0.025636
    113 H49         2.9910   -3.1360    3.3350 hc        1 MOL      0.047571
    114 H50         1.2540   -2.9060    3.7790 hc        1 MOL      0.047571
    115 H51        -0.0100   -1.1000    3.1510 hc        1 MOL      0.029541
    116 H52         1.0990    0.2900    3.0560 hc        1 MOL      0.029541
    117 H53         0.2990   -0.1750    1.5730 hc        1 MOL      0.029541
    118 H54         3.6260   -1.0210    4.2680 hc        1 MOL      0.046221
    119 H55         1.9300   -0.8390    4.9870 hc        1 MOL      0.046221
    120 H56         3.1350   -2.0630    5.4960 hc        1 MOL      0.046221
    121 N11         3.5060   -2.8770   -0.0110 n         1 MOL     -0.201560
    122 C40         4.6530   -3.6750   -0.5650 c3        1 MOL      0.083913
    123 C41         6.0310   -3.1910    0.0220 c         1 MOL      0.381819
    124 O16         6.0860   -2.0480    0.5450 o         1 MOL     -0.441761
    125 C42         4.5850   -3.6280   -2.0440 c3        1 MOL     -0.115376
    126 O17         4.7770   -2.3070   -2.4580 oh        1 MOL     -0.493902
    127 H57         3.6260   -1.8750    0.0450 hn        1 MOL      0.099161
    128 H58         4.6310   -4.7270   -0.2990 h1        1 MOL      0.065446
    129 H59         3.6170   -4.0560   -2.3040 h1        1 MOL      0.089416
    130 H60         5.3470   -4.2110   -2.5460 h1        1 MOL      0.089416
    131 H61         4.8300   -2.2910   -3.4100 ho        1 MOL      0.406875
    132 N12         7.1370   -3.8740   -0.2050 n         1 MOL     -0.336315
    133 C43         8.5030   -3.3450    0.0970 c3        1 MOL      0.064515
    134 C44         8.7770   -1.9830   -0.6070 c         1 MOL      0.427616
    135 O18         9.6230   -1.2110   -0.0540 o         1 MOL     -0.518216
    136 C45         9.5180   -4.3870   -0.3100 c3        1 MOL     -0.223308
    137 H62         7.0150   -4.8370   -0.4980 hn        1 MOL      0.257125
    138 H63         8.5230   -3.2370    1.1730 h1        1 MOL      0.105936
    139 H64        10.5310   -4.1800    0.0480 hc        1 MOL      0.076925
    140 H65         9.2220   -5.3510    0.0980 hc        1 MOL      0.076925
    141 H66         9.5530   -4.4680   -1.3900 hc        1 MOL      0.076925
    142 N13         8.1640   -1.6630   -1.7270 n         1 MOL     -0.334448
    143 C46         8.2870   -0.3770   -2.4020 c3        1 MOL      0.281132
    144 C47         7.3450    0.6860   -1.8140 c         1 MOL      0.343977
    145 O19         7.8150    1.8540   -1.6140 o         1 MOL     -0.509511
    146 C48         8.0030   -0.6150   -3.8890 c3        1 MOL     -0.325129
    147 H67         7.6990   -2.4380   -2.1790 hn        1 MOL      0.240534
    148 H68         9.2510    0.0640   -2.1850 h1        1 MOL      0.049992
    149 H69         8.9020   -0.9550   -4.3930 hc        1 MOL      0.082372
    150 H70         7.2140   -1.3610   -3.9450 hc        1 MOL      0.082372
    151 H71         7.6200    0.3300   -4.3010 hc        1 MOL      0.082372
    152 N14         6.0670    0.3930   -1.4390 n         1 MOL     -0.230693
    153 C49         5.3180    1.3330   -0.5130 c3        1 MOL     -0.085177
    154 C50         6.0200    1.6030    0.8330 c         1 MOL      0.450666
    155 O20         5.7330    2.7340    1.3240 o         1 MOL     -0.568240
    156 C51         3.8530    0.8230   -0.2310 c3        1 MOL     -0.112097
    157 C52         2.9810    1.0230   -1.5120 c3        1 MOL      0.051031
    158 C53         1.5030    0.6010   -1.3410 c         1 MOL      0.743181
    159 O21         0.7250    1.4100   -0.8650 o         1 MOL     -0.736562
    160 O22         1.1850   -0.4700   -1.8320 o         1 MOL     -0.736562
    161 H72         5.6810   -0.4930   -1.7340 hn        1 MOL      0.170716
    162 H73         5.0910    2.2990   -0.9630 h1        1 MOL      0.127485
    163 H74         3.3970    1.2780    0.6490 hc        1 MOL      0.063685
    164 H75         3.9010   -0.2530   -0.0500 hc        1 MOL      0.063685
    165 H76         3.4130    0.4150   -2.3110 hc        1 MOL     -0.027570
    166 H77         3.0530    1.9940   -2.0060 hc        1 MOL     -0.027570
    167 N15         6.8820    0.7090    1.3340 n         1 MOL     -0.105665
    168 C54         7.6580    0.8900    2.6050 c3        1 MOL     -0.223102
    169 H78         7.3640    0.1220    3.3210 h1        1 MOL      0.103609
    170 H79         8.7250    0.8020    2.3960 h1        1 MOL      0.103609
    171 H80         7.4480    1.8750    3.0220 h1        1 MOL      0.103609
    172 H81         6.9850   -0.1090    0.7580 hn        1 MOL      0.144417
    173 Ca1        -1.5770    0.2000   -1.5750 Ca        1 MOL      1.708030
    174 O23        -1.1910   -2.1110   -2.8960 oh        1 MOL     -0.798600
    175 H82        -1.1520   -2.2560   -3.8430 ho        1 MOL      0.395234
    176 H83        -0.3180   -2.3700   -2.5840 ho        1 MOL      0.395234
    177 O24        -0.5340    0.4440   -4.0890 oh        1 MOL     -0.798600
    178 H84         0.0370    0.0580   -4.7600 ho        1 MOL      0.395234
    179 H85        -0.9500    1.1880   -4.5240 ho        1 MOL      0.395234
@<TRIPOS>BOND
     1    1    2 1   
     2    1    4 1   
     3    1    5 1   
     4    1    6 1   
     5    2    3 2   
     6    2    7 1   
     7    7    8 1   
     8    7   15 1   
     9    8    9 1   
    10    8   11 1   
    11    8   16 1   
    12    9   10 2   
    13    9   19 1   
    14   11   12 1   
    15   11   17 1   
    16   11   18 1   
    17   12   13 1   
    18   12   14 1   
    19   19   20 1   
    20   19   28 1   
    21   20   21 1   
    22   20   23 1   
    23   20   29 1   
    24   21   22 2   
    25   21   41 1   
    26   23   24 1   
    27   23   30 1   
    28   23   31 1   
    29   24   25 1   
    30   24   32 1   
    31   24   33 1   
    32   25   26 1   
    33   25   34 1   
    34   25   35 1   
    35   26   27 1   
    36   26   36 1   
    37   26   37 1   
    38   27   38 1   
    39   27   39 1   
    40   27   40 1   
    41   41   42 1   
    42   41   49 1   
    43   42   43 1   
    44   42   45 1   
    45   42   50 1   
    46   43   44 2   
    47   43   53 1   
    48   45   46 1   
    49   45   51 1   
    50   45   52 1   
    51   46   47 1   
    52   46   48 1   
    53   53   54 1   
    54   53   57 1   
    55   54   55 1   
    56   54   58 1   
    57   54   59 1   
    58   55   56 2   
    59   55   60 1   
    60   60   61 1   
    61   60   68 1   
    62   61   62 1   
    63   61   64 1   
    64   61   69 1   
    65   62   63 2   
    66   62   74 1   
    67   64   65 1   
    68   64   70 1   
    69   64   71 1   
    70   65   66 1   
    71   65   67 2   
    72   66   72 1   
    73   66   73 1   
    74   74   75 1   
    75   74   78 1   
    76   75   76 1   
    77   75   79 1   
    78   75   80 1   
    79   76   77 2   
    80   76   81 1   
    81   81   82 1   
    82   81   93 1   
    83   82   83 1   
    84   82   85 1   
    85   82   94 1   
    86   83   84 2   
    87   83  102 1   
    88   85   86 1   
    89   85   95 1   
    90   85   96 1   
    91   86   87 ar  
    92   86   88 ar  
    93   87   89 ar  
    94   87   97 1   
    95   88   90 ar  
    96   88   98 1   
    97   89   91 ar  
    98   89   99 1   
    99   90   91 ar  
   100   90  100 1   
   101   91   92 1   
   102   92  101 1   
   103  102  103 1   
   104  102  110 1   
   105  103  104 1   
   106  103  106 1   
   107  103  111 1   
   108  104  105 2   
   109  104  121 1   
   110  106  107 1   
   111  106  108 1   
   112  106  112 1   
   113  107  109 1   
   114  107  113 1   
   115  107  114 1   
   116  108  115 1   
   117  108  116 1   
   118  108  117 1   
   119  109  118 1   
   120  109  119 1   
   121  109  120 1   
   122  121  122 1   
   123  121  127 1   
   124  122  123 1   
   125  122  125 1   
   126  122  128 1   
   127  123  124 2   
   128  123  132 1   
   129  125  126 1   
   130  125  129 1   
   131  125  130 1   
   132  126  131 1   
   133  132  133 1   
   134  132  137 1   
   135  133  134 1   
   136  133  136 1   
   137  133  138 1   
   138  134  135 2   
   139  134  142 1   
   140  136  139 1   
   141  136  140 1   
   142  136  141 1   
   143  142  143 1   
   144  142  147 1   
   145  143  144 1   
   146  143  146 1   
   147  143  148 1   
   148  144  145 2   
   149  144  152 1   
   150  146  149 1   
   151  146  150 1   
   152  146  151 1   
   153  152  153 1   
   154  152  161 1   
   155  153  154 1   
   156  153  156 1   
   157  153  162 1   
   158  154  155 2   
   159  154  167 1   
   160  156  157 1   
   161  156  163 1   
   162  156  164 1   
   163  157  158 1   
   164  157  165 1   
   165  157  166 1   
   166  158  159 1   
   167  158  160 1   
   168  167  168 1   
   169  167  172 1   
   170  168  169 1   
   171  168  170 1   
   172  168  171 1   
   173  174  175 1   
   174  174  176 1   
   175  177  178 1   
   176  177  179 1   
@<TRIPOS>SUBSTRUCTURE
     1 MOL         1 TEMP              0 ****  ****    0 ROOT
