@<TRIPOS>MOLECULE
MOL
  175   173     1     0     0
SMALL
resp


@<TRIPOS>ATOM
      1 C1         -0.8660    2.8420    5.8590 c3        1 MOL     -0.332081
      2 C2         -0.8340    2.6190    4.3640 c         1 MOL      0.765726
      3 O1         -0.0090    3.2440    3.7150 o         1 MOL     -0.599106
      4 H1         -0.0520    3.5100    6.1440 hc        1 MOL      0.081778
      5 H2         -1.8190    3.2910    6.1400 hc        1 MOL      0.081778
      6 H3         -0.7480    1.8870    6.3720 hc        1 MOL      0.081778
      7 N1         -1.8660    2.0070    3.7700 n         1 MOL     -0.643805
      8 C3         -2.0630    1.8140    2.3140 c3        1 MOL      0.094039
      9 C4         -2.4640    3.1240    1.6700 c         1 MOL      0.572703
     10 O2         -3.6010    3.5810    1.6740 o         1 MOL     -0.538284
     11 C5         -3.1380    0.7210    2.1680 c3        1 MOL     -0.180247
     12 C6         -3.4190    0.5060    0.6820 c         1 MOL      0.084829
     13 O3         -2.7890    1.1070   -0.2170 o         1 MOL     -0.370208
     14 O4         -4.3200   -0.3480    0.4370 o         1 MOL     -0.370208
     15 H4         -2.5010    1.5320    4.4010 hn        1 MOL      0.296868
     16 H5         -1.1300    1.4340    1.8980 h1        1 MOL      0.055036
     17 H6         -4.0430    1.1330    2.6030 hc        1 MOL      0.110191
     18 H7         -2.7960   -0.1820    2.6820 hc        1 MOL      0.110191
     19 N2         -1.5230    3.7740    1.0530 n         1 MOL     -0.456008
     20 C7         -1.6810    5.0080    0.2570 c3        1 MOL      0.406417
     21 C8         -2.8190    4.9220   -0.7380 c         1 MOL      0.146808
     22 O5         -3.2590    5.9220   -1.2420 o         1 MOL     -0.547757
     23 C9         -0.3700    5.4820   -0.4090 c3        1 MOL     -0.434849
     24 H8         -0.6170    3.3190    1.1130 hn        1 MOL      0.345290
     25 H9         -1.9020    5.8060    0.9580 h1        1 MOL      0.002756
     26 H10         0.2180    5.9660    0.3720 hc        1 MOL      0.116160
     27 H11         0.2110    4.6320   -0.7790 hc        1 MOL      0.116160
     28 H12        -0.7310    6.1420   -1.1890 hc        1 MOL      0.116160
     29 N3         -3.2300    3.7420   -1.1670 n         1 MOL      0.460724
     30 C10        -4.4370    3.5210   -1.9600 c3        1 MOL     -0.114582
     31 C11        -5.7570    3.2740   -1.1670 c         1 MOL      0.323438
     32 O6         -6.8850    3.3150   -1.7070 o         1 MOL     -0.550077
     33 C12        -4.2500    2.3070   -2.8360 c3        1 MOL     -0.027967
     34 C13        -3.0070    2.3110   -3.6610 c         1 MOL      0.538258
     35 O7         -2.0560    1.4720   -3.5080 o         1 MOL     -0.663343
     36 O8         -2.8490    3.2950   -4.4440 o         1 MOL     -0.663343
     37 H13        -2.6860    2.9630   -0.8300 hn        1 MOL     -0.195865
     38 H14        -4.4980    4.3870   -2.6260 h1        1 MOL      0.100672
     39 H15        -5.1060    2.3270   -3.5150 hc        1 MOL     -0.009562
     40 H16        -4.4300    1.3620   -2.3230 hc        1 MOL     -0.009562
     41 N4         -5.6290    2.9960    0.1300 n         1 MOL      0.044443
     42 C14        -6.7120    2.5800    1.0150 c3        1 MOL     -0.216314
     43 C15        -7.4860    1.3480    0.6620 c         1 MOL      0.584564
     44 O9         -8.5380    1.1210    1.2230 o         1 MOL     -0.583854
     45 H17        -4.6860    2.9860    0.4960 hn        1 MOL     -0.046154
     46 H18        -7.4660    3.3630    0.9700 h1        1 MOL      0.103890
     47 H19        -6.4140    2.5290    2.0650 h1        1 MOL      0.103890
     48 N5         -7.0480    0.4960   -0.3020 n         1 MOL     -0.359034
     49 C16        -7.8920   -0.7530   -0.5790 c3        1 MOL     -0.054456
     50 C17        -7.6910   -1.8590    0.4460 c         1 MOL      0.458473
     51 O10        -8.5790   -2.6480    0.5880 o         1 MOL     -0.512720
     52 C18        -7.6860   -1.1310   -1.9720 c3        1 MOL     -0.207745
     53 C19        -8.6650   -2.2050   -2.3050 c         1 MOL      0.700393
     54 N6         -9.9090   -1.8380   -2.4310 n         1 MOL     -0.861272
     55 O11        -8.3230   -3.3480   -2.4270 o         1 MOL     -0.551697
     56 H20        -6.0740    0.4540   -0.5820 hn        1 MOL      0.328261
     57 H21        -8.9470   -0.4490   -0.5270 h1        1 MOL      0.106486
     58 H22        -6.6560   -1.4500   -2.1110 hc        1 MOL      0.049371
     59 H23        -7.9010   -0.3280   -2.6810 hc        1 MOL      0.049371
     60 H24       -10.0690   -0.8710   -2.2010 hn        1 MOL      0.386048
     61 H25       -10.6420   -2.5380   -2.4050 hn        1 MOL      0.386048
     62 N7         -6.5380   -1.9340    1.1340 n         1 MOL     -0.220585
     63 C20        -6.1970   -2.9090    2.1660 c3        1 MOL      0.036252
     64 C21        -4.8820   -3.6350    1.9800 c         1 MOL      0.402508
     65 O12        -4.6770   -4.6960    2.6150 o         1 MOL     -0.561670
     66 H26        -5.9200   -1.1440    1.0220 hn        1 MOL      0.113523
     67 H27        -7.0400   -3.5940    2.2940 h1        1 MOL      0.060319
     68 H28        -6.1990   -2.3670    3.1120 h1        1 MOL      0.060319
     69 N8         -3.9950   -3.2290    1.0330 n         1 MOL     -0.298238
     70 C22        -2.7560   -3.9910    0.7940 c3        1 MOL      0.361631
     71 C23        -1.5260   -3.0480    0.7860 c         1 MOL      0.218784
     72 O13        -1.4890   -1.9640    0.1560 o         1 MOL     -0.230811
     73 C24        -2.7680   -4.7410   -0.5540 c3        1 MOL      0.372739
     74 C25        -1.7780   -5.9230   -0.4010 c3        1 MOL     -0.567706
     75 O14        -4.1300   -5.2860   -0.8350 oh        1 MOL     -0.597573
     76 H29        -4.0650   -2.3680    0.5200 hn        1 MOL      0.091089
     77 H30        -2.4910   -4.6670    1.5980 h1        1 MOL     -0.020703
     78 H31        -2.4620   -4.1240   -1.4010 h1        1 MOL      0.019001
     79 H32        -4.5980   -4.5880   -1.3020 ho        1 MOL      0.346780
     80 H33        -1.5370   -6.3440   -1.3810 hc        1 MOL      0.147365
     81 H34        -0.8100   -5.5520   -0.0760 hc        1 MOL      0.147365
     82 H35        -2.2840   -6.6430    0.2370 hc        1 MOL      0.147365
     83 N9         -0.4410   -3.4930    1.4730 n         1 MOL     -0.440912
     84 C26         0.8400   -2.7020    1.4920 c3        1 MOL     -0.142764
     85 C27         1.7940   -3.0050    0.3230 c         1 MOL      0.656706
     86 O15         1.9980   -4.1680    0.0060 o         1 MOL     -0.612076
     87 C28         1.4670   -2.8150    2.9520 c3        1 MOL      0.303149
     88 C29         0.5450   -2.1400    3.9870 c3        1 MOL      0.336828
     89 C30         2.8320   -2.1290    3.0110 c3        1 MOL     -0.529755
     90 C31         0.8370   -2.6370    5.3500 c3        1 MOL     -0.356021
     91 H36        -0.4330   -4.4380    1.8300 hn        1 MOL      0.288442
     92 H37         0.5900   -1.6480    1.3990 h1        1 MOL     -0.006945
     93 H38         1.5220   -3.8530    3.2680 hc        1 MOL     -0.027124
     94 H39        -0.4890   -2.5040    3.9390 hc        1 MOL     -0.053153
     95 H40         0.6090   -1.0570    4.0690 hc        1 MOL     -0.053153
     96 H41         3.5450   -2.7900    2.5280 hc        1 MOL      0.116940
     97 H42         2.8070   -1.1840    2.4680 hc        1 MOL      0.116940
     98 H43         3.1260   -1.8560    4.0170 hc        1 MOL      0.116940
     99 H44         1.8190   -2.2690    5.6660 hc        1 MOL      0.059034
    100 H45         0.0240   -2.2420    5.9500 hc        1 MOL      0.059034
    101 H46         0.6960   -3.7100    5.3090 hc        1 MOL      0.059034
    102 N10         2.2850   -1.9610   -0.2770 n         1 MOL     -0.227835
    103 C32         3.2970   -1.9820   -1.3230 c3        1 MOL      0.090255
    104 C33         4.6950   -1.6250   -0.7360 c         1 MOL      0.385278
    105 O16         4.8340   -1.0630    0.3130 o         1 MOL     -0.355733
    106 C34         2.9900   -0.8700   -2.3930 c3        1 MOL     -0.323811
    107 C35         1.6800   -1.0480   -3.1390 c         1 MOL      0.944786
    108 O17         0.8590   -0.1190   -3.1710 o         1 MOL     -0.765953
    109 O18         1.5480   -2.0510   -3.8220 o         1 MOL     -0.765953
    110 H47         1.9670   -1.0360   -0.0430 hn        1 MOL      0.000568
    111 H48         3.4510   -2.9520   -1.8020 h1        1 MOL      0.042491
    112 H49         3.8000   -0.8890   -3.1170 hc        1 MOL      0.088613
    113 H50         2.9320    0.1190   -1.9470 hc        1 MOL      0.088613
    114 N11         5.7720   -1.9210   -1.4760 n         1 MOL     -0.497266
    115 C36         7.1560   -1.7040   -1.0480 c3        1 MOL      0.108353
    116 C37         7.4290   -0.2490   -0.5780 c         1 MOL      0.586998
    117 O19         7.7780   -0.0730    0.5710 o         1 MOL     -0.524880
    118 C38         8.1690   -2.1080   -2.0940 c3        1 MOL     -0.071821
    119 C39         9.5890   -1.9320   -1.5610 ca        1 MOL     -0.001485
    120 C40        10.0560   -2.4900   -0.3090 ca        1 MOL     -0.115617
    121 C41        10.4740   -0.9870   -2.1500 ca        1 MOL     -0.115617
    122 C42        11.2980   -2.0070    0.2920 ca        1 MOL     -0.167999
    123 C43        11.7200   -0.6030   -1.6550 ca        1 MOL     -0.167999
    124 C44        12.1280   -1.0390   -0.3640 ca        1 MOL     -0.057098
    125 H51         5.5800   -2.5620   -2.2380 hn        1 MOL      0.303249
    126 H52         7.3150   -2.2550   -0.1250 h1        1 MOL      0.092939
    127 H53         8.0600   -1.5440   -3.0220 hc        1 MOL      0.047847
    128 H54         8.0570   -3.1450   -2.4350 hc        1 MOL      0.047847
    129 H55         9.3990   -3.0870    0.3120 ha        1 MOL      0.103240
    130 H56        10.1790   -0.4020   -3.0070 ha        1 MOL      0.103240
    131 H57        11.4320   -2.3750    1.3000 ha        1 MOL      0.128063
    132 H58        12.3160    0.1420   -2.1590 ha        1 MOL      0.128063
    133 H59        13.0480   -0.6680    0.0620 ha        1 MOL      0.097102
    134 N12         7.1390    0.8620   -1.3070 n         1 MOL     -0.300828
    135 C45         7.2010    2.2780   -0.8550 c3        1 MOL      0.021092
    136 C46         6.2340    2.6070    0.3200 c         1 MOL      0.306839
    137 O20         6.5780    3.3590    1.2080 o         1 MOL     -0.470768
    138 C47         6.8660    3.0940   -2.1220 c3        1 MOL      0.015675
    139 C48         6.0660    2.1660   -2.9790 c3        1 MOL     -0.206870
    140 C49         6.6820    0.8500   -2.6570 c3        1 MOL      0.170677
    141 H60         8.2320    2.5520   -0.6640 h1        1 MOL      0.088121
    142 H61         6.3340    4.0180   -1.9270 hc        1 MOL      0.030685
    143 H62         7.8300    3.3360   -2.5800 hc        1 MOL      0.030685
    144 H63         5.0290    2.1500   -2.6230 hc        1 MOL      0.082399
    145 H64         6.0660    2.2520   -4.0600 hc        1 MOL      0.082399
    146 H65         6.0440    0.0190   -2.9580 h1        1 MOL     -0.017643
    147 H66         7.4900    0.5930   -3.3360 h1        1 MOL     -0.017643
    148 N13         4.9910    2.0340    0.3660 n         1 MOL     -0.136630
    149 C50         4.1540    2.2270    1.5130 c3        1 MOL     -0.107566
    150 C51         4.7670    1.6170    2.7480 c         1 MOL      0.374490
    151 O21         4.5800    2.2110    3.8240 o         1 MOL     -0.556499
    152 C52         2.8140    1.6820    1.2320 c3        1 MOL     -0.057648
    153 C53         1.9770    2.4340    0.1980 c3        1 MOL     -0.042215
    154 C54         0.7120    1.5690   -0.1580 c         1 MOL      0.501876
    155 O22         0.7300    0.3060    0.0290 o         1 MOL     -0.608398
    156 O23        -0.2140    2.1090   -0.7840 o         1 MOL     -0.608398
    157 H67         4.6020    1.4910   -0.3900 hn        1 MOL      0.169600
    158 H68         3.9730    3.2900    1.6730 h1        1 MOL      0.105364
    159 H69         2.2200    1.5060    2.1230 hc        1 MOL      0.087517
    160 H70         3.0880    0.7250    0.7930 hc        1 MOL      0.087517
    161 H71         2.6100    2.6130   -0.6700 hc        1 MOL      0.021888
    162 H72         1.6080    3.4170    0.5260 hc        1 MOL      0.021888
    163 N14         5.6300    0.6190    2.6220 n         1 MOL      0.092737
    164 C55         6.4130   -0.0010    3.7070 c3        1 MOL     -0.105124
    165 H73         7.1650    0.7040    4.0600 h1        1 MOL      0.047749
    166 H74         5.7490   -0.2660    4.5290 h1        1 MOL      0.047749
    167 H75         6.9060   -0.8990    3.3330 h1        1 MOL      0.047749
    168 H76         5.7330    0.1600    1.7200 hn        1 MOL     -0.017715
    169 Ca1        -1.2010   -0.0890   -1.7020 Ca        1 MOL      1.616110
    170 O24        -3.5560   -1.5190   -1.8790 oh        1 MOL     -0.978335
    171 H77        -4.2050   -1.5900   -2.5720 ho        1 MOL      0.450882
    172 H78        -4.0070   -1.0580   -1.1660 ho        1 MOL      0.450882
    173 O25        -0.9960   -2.3170   -3.0520 oh        1 MOL     -0.978335
    174 H79        -0.1810   -2.5390   -3.5170 ho        1 MOL      0.450882
    175 H80        -1.6830   -2.7390   -3.5650 ho        1 MOL      0.450882
@<TRIPOS>BOND
     1    1    2 1   
     2    1    4 1   
     3    1    5 1   
     4    1    6 1   
     5    2    3 2   
     6    2    7 1   
     7    7    8 1   
     8    7   15 1   
     9    8    9 1   
    10    8   11 1   
    11    8   16 1   
    12    9   10 2   
    13    9   19 1   
    14   11   12 1   
    15   11   17 1   
    16   11   18 1   
    17   12   13 1   
    18   12   14 1   
    19   19   20 1   
    20   19   24 1   
    21   20   21 1   
    22   20   23 1   
    23   20   25 1   
    24   21   22 2   
    25   21   29 1   
    26   23   26 1   
    27   23   27 1   
    28   23   28 1   
    29   29   30 1   
    30   29   37 1   
    31   30   31 1   
    32   30   33 1   
    33   30   38 1   
    34   31   32 2   
    35   31   41 1   
    36   33   34 1   
    37   33   39 1   
    38   33   40 1   
    39   34   35 1   
    40   34   36 1   
    41   41   42 1   
    42   41   45 1   
    43   42   43 1   
    44   42   46 1   
    45   42   47 1   
    46   43   44 2   
    47   43   48 1   
    48   48   49 1   
    49   48   56 1   
    50   49   50 1   
    51   49   52 1   
    52   49   57 1   
    53   50   51 2   
    54   50   62 1   
    55   52   53 1   
    56   52   58 1   
    57   52   59 1   
    58   53   54 1   
    59   53   55 2   
    60   54   60 1   
    61   54   61 1   
    62   62   63 1   
    63   62   66 1   
    64   63   64 1   
    65   63   67 1   
    66   63   68 1   
    67   64   65 2   
    68   64   69 1   
    69   69   70 1   
    70   69   76 1   
    71   70   71 1   
    72   70   73 1   
    73   70   77 1   
    74   71   72 2   
    75   71   83 1   
    76   73   74 1   
    77   73   75 1   
    78   73   78 1   
    79   74   80 1   
    80   74   81 1   
    81   74   82 1   
    82   75   79 1   
    83   83   84 1   
    84   83   91 1   
    85   84   85 1   
    86   84   87 1   
    87   84   92 1   
    88   85   86 2   
    89   85  102 1   
    90   87   88 1   
    91   87   89 1   
    92   87   93 1   
    93   88   90 1   
    94   88   94 1   
    95   88   95 1   
    96   89   96 1   
    97   89   97 1   
    98   89   98 1   
    99   90   99 1   
   100   90  100 1   
   101   90  101 1   
   102  102  103 1   
   103  102  110 1   
   104  103  104 1   
   105  103  106 1   
   106  103  111 1   
   107  104  105 2   
   108  104  114 1   
   109  106  107 1   
   110  106  112 1   
   111  106  113 1   
   112  107  108 1   
   113  107  109 1   
   114  114  115 1   
   115  114  125 1   
   116  115  116 1   
   117  115  118 1   
   118  115  126 1   
   119  116  117 2   
   120  116  134 1   
   121  118  119 1   
   122  118  127 1   
   123  118  128 1   
   124  119  120 ar  
   125  119  121 ar  
   126  120  122 ar  
   127  120  129 1   
   128  121  123 ar  
   129  121  130 1   
   130  122  124 ar  
   131  122  131 1   
   132  123  124 ar  
   133  123  132 1   
   134  124  133 1   
   135  134  135 1   
   136  134  140 1   
   137  135  136 1   
   138  135  138 1   
   139  135  141 1   
   140  136  137 2   
   141  136  148 1   
   142  138  139 1   
   143  138  142 1   
   144  138  143 1   
   145  139  140 1   
   146  139  144 1   
   147  139  145 1   
   148  140  146 1   
   149  140  147 1   
   150  148  149 1   
   151  148  157 1   
   152  149  150 1   
   153  149  152 1   
   154  149  158 1   
   155  150  151 2   
   156  150  163 1   
   157  152  153 1   
   158  152  159 1   
   159  152  160 1   
   160  153  154 1   
   161  153  161 1   
   162  153  162 1   
   163  154  155 1   
   164  154  156 1   
   165  163  164 1   
   166  163  168 1   
   167  164  165 1   
   168  164  166 1   
   169  164  167 1   
   170  170  171 1   
   171  170  172 1   
   172  173  174 1   
   173  173  175 1   
@<TRIPOS>SUBSTRUCTURE
     1 MOL         1 TEMP              0 ****  ****    0 ROOT
