@<TRIPOS>MOLECULE
MOL
  189   185     1     0     0
SMALL
resp


@<TRIPOS>ATOM
      1 C1         -0.6350    2.4430    5.5990 c3        1 MOL     -0.338417
      2 C2         -0.9660    1.8650    4.1520 c         1 MOL      0.617863
      3 O1         -0.1330    2.0040    3.2320 o         1 MOL     -0.603671
      4 H1         -1.5460    2.4680    6.1970 hc        1 MOL      0.095317
      5 H2          0.1020    1.8050    6.0860 hc        1 MOL      0.095317
      6 H3         -0.2360    3.4530    5.5050 hc        1 MOL      0.095317
      7 N1         -2.1300    1.3680    3.8370 n         1 MOL     -0.516496
      8 C3         -2.7010    1.0160    2.5460 c3        1 MOL      0.317623
      9 C4         -3.2090    2.3430    1.9370 c         1 MOL      0.327741
     10 O2         -4.3790    2.6050    1.9110 o         1 MOL     -0.453917
     11 C5         -3.7250   -0.0740    2.7300 c3        1 MOL     -0.347575
     12 C6         -4.4420   -0.2940    1.3700 c         1 MOL      0.682305
     13 O3         -3.9110    0.0340    0.2680 o         1 MOL     -0.604293
     14 O4         -5.6370   -0.7610    1.4330 o         1 MOL     -0.604293
     15 H4         -2.7350    1.2340    4.6330 hn        1 MOL      0.293226
     16 H5         -1.9680    0.6050    1.8520 h1        1 MOL      0.038714
     17 H6         -4.4030    0.2550    3.5210 hc        1 MOL      0.086023
     18 H7         -3.2330   -1.0060    3.0210 hc        1 MOL      0.086023
     19 N2         -2.3440    3.1390    1.4050 n         1 MOL     -0.174051
     20 C7         -2.5150    4.5520    1.1780 c3        1 MOL     -0.002385
     21 C8         -3.4560    4.8320   -0.0340 c         1 MOL      0.347072
     22 O5         -4.1470    5.8590   -0.0590 o         1 MOL     -0.566211
     23 C9         -1.1630    5.3120    1.2720 c3        1 MOL     -0.279269
     24 C10        -1.2830    6.8240    1.0780 c3        1 MOL      0.015123
     25 C11         0.1130    7.5060    1.1910 c3        1 MOL     -0.084911
     26 C12        -0.0350    9.0850    1.0330 c3        1 MOL     -0.125027
     27 N3         -0.5000    9.5510   -0.3060 n4        1 MOL     -0.371997
     28 H8         -1.3860    2.8170    1.3380 hn        1 MOL      0.233038
     29 H9         -3.0610    4.9830    2.0110 h1        1 MOL      0.089655
     30 H10        -0.5570    4.9210    0.4490 hc        1 MOL      0.129588
     31 H11        -0.7680    5.0720    2.2560 hc        1 MOL      0.129588
     32 H12        -1.9570    7.1760    1.8690 hc        1 MOL      0.047394
     33 H13        -1.7910    7.0040    0.1290 hc        1 MOL      0.047394
     34 H14         0.7300    7.0850    0.4010 hc        1 MOL      0.075024
     35 H15         0.6550    7.2870    2.1130 hc        1 MOL      0.075024
     36 H16         0.9270    9.5660    1.2020 hx        1 MOL      0.132208
     37 H17        -0.7920    9.3930    1.7550 hx        1 MOL      0.132208
     38 H18        -0.1880   10.4800   -0.5060 hn        1 MOL      0.340562
     39 H19        -0.0090    8.8820   -0.8770 hn        1 MOL      0.340562
     40 H20        -1.4930    9.5360   -0.4580 hn        1 MOL      0.340562
     41 N4         -3.4730    3.9920   -1.0250 n         1 MOL     -0.156691
     42 C13        -4.5180    4.0330   -2.0940 c3        1 MOL      0.015075
     43 C14        -5.8380    3.3150   -1.6760 c         1 MOL      0.430875
     44 O6         -6.8570    3.3560   -2.3600 o         1 MOL     -0.543797
     45 C15        -3.9610    3.4620   -3.4560 c3        1 MOL     -0.369373
     46 C16        -3.0670    2.1950   -3.4680 c         1 MOL      0.787698
     47 O7         -2.1400    2.1360   -4.2770 o         1 MOL     -0.690466
     48 O8         -3.0700    1.3790   -2.5300 o         1 MOL     -0.690466
     49 H21        -2.7240    3.3110   -1.0150 hn        1 MOL      0.207960
     50 H22        -4.8140    5.0740   -2.1860 h1        1 MOL      0.087585
     51 H23        -3.3230    4.1920   -3.9600 hc        1 MOL      0.099300
     52 H24        -4.8090    3.2690   -4.1150 hc        1 MOL      0.099300
     53 N5         -5.7690    2.5370   -0.5950 n         1 MOL     -0.016043
     54 C17        -6.9330    1.7930   -0.0660 c3        1 MOL     -0.122125
     55 C18        -7.3780    0.5030   -0.9000 c         1 MOL      0.569723
     56 O9         -8.5530    0.2980   -1.1660 o         1 MOL     -0.591972
     57 H25        -4.8870    2.4600   -0.1030 hn        1 MOL     -0.009381
     58 H26        -7.8100    2.4300    0.0700 h1        1 MOL      0.081384
     59 H27        -6.7050    1.4810    0.9520 h1        1 MOL      0.081384
     60 N6         -6.4030   -0.2530   -1.3970 n         1 MOL     -0.077276
     61 C19        -6.6970   -1.4280   -2.3240 c3        1 MOL      0.055828
     62 C20        -6.8530   -2.7200   -1.5570 c         1 MOL      0.333884
     63 O10        -7.3000   -3.7110   -2.1000 o         1 MOL     -0.529768
     64 C21        -5.6720   -1.6560   -3.4270 c3        1 MOL     -0.304195
     65 C22        -4.1710   -1.7640   -3.0910 c         1 MOL      0.825438
     66 O11        -3.8900   -2.3500   -2.0080 o         1 MOL     -0.691817
     67 O12        -3.3060   -1.4900   -3.9430 o         1 MOL     -0.691817
     68 H28        -5.5370   -0.2080   -0.8830 hn        1 MOL     -0.179366
     69 H29        -7.6720   -1.2900   -2.7800 h1        1 MOL      0.115443
     70 H30        -5.8100   -0.7910   -4.0740 hc        1 MOL      0.080552
     71 H31        -5.9260   -2.5800   -3.9430 hc        1 MOL      0.080552
     72 N7         -6.5830   -2.7400   -0.2570 n         1 MOL     -0.019132
     73 C23        -6.7240   -3.8360    0.6590 c3        1 MOL     -0.360015
     74 C24        -5.4370   -4.5800    0.9420 c         1 MOL      0.608873
     75 O13        -5.4520   -5.5770    1.6670 o         1 MOL     -0.577325
     76 H32        -6.3520   -1.8630    0.1730 hn        1 MOL      0.163874
     77 H33        -7.4830   -4.5030    0.2510 h1        1 MOL      0.141403
     78 H34        -7.0290   -3.4030    1.6120 h1        1 MOL      0.141403
     79 N8         -4.2900   -3.9740    0.5430 n         1 MOL     -0.246295
     80 C25        -2.9130   -4.5630    0.8010 c3        1 MOL     -0.183958
     81 C26        -1.8060   -3.4610    0.9590 c         1 MOL      0.660892
     82 O14        -2.0920   -2.3070    0.5140 o         1 MOL     -0.713686
     83 C27        -2.4220   -5.4740   -0.3990 c3        1 MOL      0.537577
     84 C28        -2.6890   -7.0020   -0.3880 c3        1 MOL     -0.261677
     85 O15        -2.8550   -4.9380   -1.5850 oh        1 MOL     -0.680571
     86 H35        -4.4030   -3.2170   -0.1230 hn        1 MOL      0.197081
     87 H36        -3.1070   -5.1500    1.6880 h1        1 MOL      0.073987
     88 H37        -1.3340   -5.4950   -0.3940 h1        1 MOL     -0.030237
     89 H38        -3.5020   -4.2360   -1.4430 ho        1 MOL      0.419182
     90 H39        -2.2080   -7.5340   -1.2040 hc        1 MOL      0.051520
     91 H40        -2.2350   -7.4260    0.4990 hc        1 MOL      0.051520
     92 H41        -3.7720   -7.1470   -0.3910 hc        1 MOL      0.051520
     93 N9         -0.7480   -3.7940    1.5520 n         1 MOL     -0.421183
     94 C29         0.4840   -2.9860    1.7950 c3        1 MOL      0.004239
     95 C30         1.6860   -3.5160    0.9800 c         1 MOL      0.297286
     96 O16         1.7470   -4.7670    0.8460 o         1 MOL     -0.522133
     97 C31         0.8420   -2.8630    3.3010 c3        1 MOL      0.265122
     98 C32        -0.4850   -2.5240    4.1100 c3        1 MOL      0.138443
     99 C33         1.9020   -1.7540    3.5930 c3        1 MOL     -0.747452
    100 C34        -0.3240   -2.6210    5.6870 c3        1 MOL     -0.254172
    101 H42        -0.6850   -4.7600    1.8140 hn        1 MOL      0.255421
    102 H43         0.3100   -1.9530    1.5030 h1        1 MOL      0.121920
    103 H44         1.1920   -3.8050    3.7280 hc        1 MOL     -0.019995
    104 H45        -1.2760   -3.2190    3.8460 hc        1 MOL     -0.021245
    105 H46        -0.9100   -1.5660    3.8100 hc        1 MOL     -0.021245
    106 H47         2.8580   -1.8240    3.0840 hc        1 MOL      0.163335
    107 H48         1.4360   -0.7880    3.4150 hc        1 MOL      0.163335
    108 H49         2.0450   -1.8610    4.6630 hc        1 MOL      0.163335
    109 H50         0.3530   -1.8870    6.1360 hc        1 MOL      0.058656
    110 H51        -1.2580   -2.3760    6.1840 hc        1 MOL      0.058656
    111 H52         0.0200   -3.5950    6.0500 hc        1 MOL      0.058656
    112 N10         2.4540   -2.6330    0.3850 n         1 MOL     -0.114257
    113 C35         3.6820   -2.9190   -0.4060 c3        1 MOL     -0.001551
    114 C36         4.9270   -2.5380    0.3950 c         1 MOL      0.384147
    115 O17         4.8670   -1.7560    1.3760 o         1 MOL     -0.362566
    116 C37         3.5580   -2.2980   -1.7860 c3        1 MOL      0.306231
    117 C38         2.3550   -2.8560   -2.5590 c3        1 MOL     -0.631398
    118 O18         3.2530   -0.8950   -1.5890 oh        1 MOL     -0.604400
    119 H53         2.3190   -1.6720    0.6730 hn        1 MOL      0.354563
    120 H54         3.8760   -3.9890   -0.4970 h1        1 MOL      0.053442
    121 H55         4.4710   -2.3580   -2.3890 h1        1 MOL      0.014350
    122 H56         2.3590   -0.8640   -1.2270 ho        1 MOL      0.365801
    123 H57         2.3020   -2.2990   -3.4960 hc        1 MOL      0.177308
    124 H58         2.5660   -3.9010   -2.7790 hc        1 MOL      0.177308
    125 H59         1.4640   -2.6340   -1.9750 hc        1 MOL      0.177308
    126 N11         6.1540   -2.9180   -0.0640 n         1 MOL     -0.359933
    127 C39         7.5040   -2.5540    0.4100 c3        1 MOL     -0.076197
    128 C40         7.7190   -0.9960    0.4580 c         1 MOL      0.287529
    129 O19         8.0840   -0.5120    1.5410 o         1 MOL     -0.465954
    130 C41         8.5860   -3.2090   -0.4300 c3        1 MOL      0.249966
    131 C42         8.7420   -4.6990   -0.3230 c3        1 MOL     -0.417486
    132 O20         8.3840   -2.8030   -1.7770 oh        1 MOL     -0.638729
    133 H60         6.1050   -3.4290   -0.9250 hn        1 MOL      0.253040
    134 H61         7.4670   -2.8810    1.4560 h1        1 MOL      0.157563
    135 H62         9.5360   -2.7800   -0.1130 h1        1 MOL      0.046236
    136 H63         9.0700   -3.2260   -2.2950 ho        1 MOL      0.413150
    137 H64         9.4840   -5.1440   -0.9940 hc        1 MOL      0.127468
    138 H65         8.9670   -4.8780    0.7300 hc        1 MOL      0.127468
    139 H66         7.8220   -5.2310   -0.5380 hc        1 MOL      0.127468
    140 N12         7.3150   -0.2540   -0.5660 n         1 MOL     -0.111420
    141 C43         7.4060    1.2040   -0.5630 c3        1 MOL      0.016205
    142 C44         6.2210    1.7880    0.2240 c         1 MOL      0.336572
    143 O21         6.4380    2.8380    0.8780 o         1 MOL     -0.530181
    144 C45         7.4710    1.8430   -1.9620 c3        1 MOL     -0.362429
    145 C46         8.8860    1.8620   -2.5990 c3        1 MOL      0.137610
    146 C47         8.8200    2.2790   -4.0680 c3        1 MOL     -0.185470
    147 C48        10.2310    2.5100   -4.5900 c3        1 MOL      0.022432
    148 N13        10.9750    1.3570   -5.1450 n4        1 MOL     -0.409206
    149 H67         7.2970   -0.7090   -1.4710 hn        1 MOL      0.231817
    150 H68         8.2870    1.5160   -0.0090 h1        1 MOL      0.088365
    151 H69         7.1910    2.8780   -1.7520 hc        1 MOL      0.132913
    152 H70         6.7480    1.3560   -2.6130 hc        1 MOL      0.132913
    153 H71         9.4420    0.9270   -2.5610 hc        1 MOL      0.011924
    154 H72         9.4320    2.6590   -2.0930 hc        1 MOL      0.011924
    155 H73         8.2820    3.2190   -4.1130 hc        1 MOL      0.091919
    156 H74         8.2560    1.5550   -4.6440 hc        1 MOL      0.091919
    157 H75        10.8630    3.0250   -3.8670 hx        1 MOL      0.099894
    158 H76        10.1390    3.2810   -5.3570 hx        1 MOL      0.099894
    159 H77        11.0850    0.6330   -4.4360 hn        1 MOL      0.293496
    160 H78        10.4420    1.0740   -5.9480 hn        1 MOL      0.293496
    161 H79        11.8920    1.5790   -5.4840 hn        1 MOL      0.293496
    162 N14         5.0810    1.1890    0.4840 n         1 MOL     -0.020678
    163 C49         4.0500    1.7240    1.4150 c3        1 MOL     -0.193466
    164 C50         4.5930    1.6060    2.8670 c         1 MOL      0.511423
    165 O22         4.3270    2.4910    3.6190 o         1 MOL     -0.543143
    166 C51         2.7000    0.9850    1.2340 c3        1 MOL      0.120845
    167 C52         1.9080    1.6290    0.1290 c3        1 MOL     -0.024271
    168 C53         0.5850    0.8690   -0.1640 c         1 MOL      0.631073
    169 O23         0.6080   -0.3890   -0.3400 o         1 MOL     -0.717658
    170 O24        -0.5380    1.4210   -0.1110 o         1 MOL     -0.717658
    171 H80         4.9550    0.2290    0.1930 hn        1 MOL      0.016363
    172 H81         3.9840    2.7900    1.1910 h1        1 MOL      0.124684
    173 H82         2.1140    0.9960    2.1530 hc        1 MOL      0.018506
    174 H83         2.9020   -0.0580    0.9940 hc        1 MOL      0.018506
    175 H84         2.5350    1.7930   -0.7530 hc        1 MOL     -0.025420
    176 H85         1.6300    2.6390    0.4050 hc        1 MOL     -0.025420
    177 N15         5.2460    0.4860    3.2460 n         1 MOL     -0.136301
    178 C54         5.9970    0.2920    4.5220 c3        1 MOL     -0.345973
    179 H86         6.5430    1.2040    4.7640 h1        1 MOL      0.127078
    180 H87         5.2970    0.0640    5.3260 h1        1 MOL      0.127078
    181 H88         6.7020   -0.5320    4.4080 h1        1 MOL      0.127078
    182 H89         5.3880   -0.1880    2.5100 hn        1 MOL      0.184723
    183 Ca1        -1.9340   -0.5880   -1.3650 Ca        1 MOL      1.751466
    184 O25        -0.5090   -0.0850   -3.4310 oh        1 MOL     -0.868844
    185 H90        -1.0020    0.5610   -3.9280 ho        1 MOL      0.405147
    186 H91         0.1160   -0.4540   -4.0550 ho        1 MOL      0.405147
    187 O26        -1.0370   -2.9870   -2.3970 oh        1 MOL     -0.868844
    188 H92        -1.7550   -3.6140   -2.3060 ho        1 MOL      0.405147
    189 H93        -0.6500   -3.1890   -3.2570 ho        1 MOL      0.405147
@<TRIPOS>BOND
     1    1    2 1   
     2    1    4 1   
     3    1    5 1   
     4    1    6 1   
     5    2    3 2   
     6    2    7 1   
     7    7    8 1   
     8    7   15 1   
     9    8    9 1   
    10    8   11 1   
    11    8   16 1   
    12    9   10 2   
    13    9   19 1   
    14   11   12 1   
    15   11   17 1   
    16   11   18 1   
    17   12   13 1   
    18   12   14 1   
    19   19   20 1   
    20   19   28 1   
    21   20   21 1   
    22   20   23 1   
    23   20   29 1   
    24   21   22 2   
    25   21   41 1   
    26   23   24 1   
    27   23   30 1   
    28   23   31 1   
    29   24   25 1   
    30   24   32 1   
    31   24   33 1   
    32   25   26 1   
    33   25   34 1   
    34   25   35 1   
    35   26   27 1   
    36   26   36 1   
    37   26   37 1   
    38   27   38 1   
    39   27   39 1   
    40   27   40 1   
    41   41   42 1   
    42   41   49 1   
    43   42   43 1   
    44   42   45 1   
    45   42   50 1   
    46   43   44 2   
    47   43   53 1   
    48   45   46 1   
    49   45   51 1   
    50   45   52 1   
    51   46   47 1   
    52   46   48 1   
    53   53   54 1   
    54   53   57 1   
    55   54   55 1   
    56   54   58 1   
    57   54   59 1   
    58   55   56 2   
    59   55   60 1   
    60   60   61 1   
    61   60   68 1   
    62   61   62 1   
    63   61   64 1   
    64   61   69 1   
    65   62   63 2   
    66   62   72 1   
    67   64   65 1   
    68   64   70 1   
    69   64   71 1   
    70   65   66 1   
    71   65   67 1   
    72   72   73 1   
    73   72   76 1   
    74   73   74 1   
    75   73   77 1   
    76   73   78 1   
    77   74   75 2   
    78   74   79 1   
    79   79   80 1   
    80   79   86 1   
    81   80   81 1   
    82   80   83 1   
    83   80   87 1   
    84   81   82 2   
    85   81   93 1   
    86   83   84 1   
    87   83   85 1   
    88   83   88 1   
    89   84   90 1   
    90   84   91 1   
    91   84   92 1   
    92   85   89 1   
    93   93   94 1   
    94   93  101 1   
    95   94   95 1   
    96   94   97 1   
    97   94  102 1   
    98   95   96 2   
    99   95  112 1   
   100   97   98 1   
   101   97   99 1   
   102   97  103 1   
   103   98  100 1   
   104   98  104 1   
   105   98  105 1   
   106   99  106 1   
   107   99  107 1   
   108   99  108 1   
   109  100  109 1   
   110  100  110 1   
   111  100  111 1   
   112  112  113 1   
   113  112  119 1   
   114  113  114 1   
   115  113  116 1   
   116  113  120 1   
   117  114  115 2   
   118  114  126 1   
   119  116  117 1   
   120  116  118 1   
   121  116  121 1   
   122  117  123 1   
   123  117  124 1   
   124  117  125 1   
   125  118  122 1   
   126  126  127 1   
   127  126  133 1   
   128  127  128 1   
   129  127  130 1   
   130  127  134 1   
   131  128  129 2   
   132  128  140 1   
   133  130  131 1   
   134  130  132 1   
   135  130  135 1   
   136  131  137 1   
   137  131  138 1   
   138  131  139 1   
   139  132  136 1   
   140  140  141 1   
   141  140  149 1   
   142  141  142 1   
   143  141  144 1   
   144  141  150 1   
   145  142  143 2   
   146  142  162 1   
   147  144  145 1   
   148  144  151 1   
   149  144  152 1   
   150  145  146 1   
   151  145  153 1   
   152  145  154 1   
   153  146  147 1   
   154  146  155 1   
   155  146  156 1   
   156  147  148 1   
   157  147  157 1   
   158  147  158 1   
   159  148  159 1   
   160  148  160 1   
   161  148  161 1   
   162  162  163 1   
   163  162  171 1   
   164  163  164 1   
   165  163  166 1   
   166  163  172 1   
   167  164  165 2   
   168  164  177 1   
   169  166  167 1   
   170  166  173 1   
   171  166  174 1   
   172  167  168 1   
   173  167  175 1   
   174  167  176 1   
   175  168  169 1   
   176  168  170 1   
   177  177  178 1   
   178  177  182 1   
   179  178  179 1   
   180  178  180 1   
   181  178  181 1   
   182  184  185 1   
   183  184  186 1   
   184  187  188 1   
   185  187  189 1   
@<TRIPOS>SUBSTRUCTURE
     1 MOL         1 TEMP              0 ****  ****    0 ROOT
