@<TRIPOS>MOLECULE
MOL
  175   173     1     0     0
SMALL
resp


@<TRIPOS>ATOM
      1 C1          0.2130    4.2910    5.3900 c3        1 MOL     -0.350299
      2 C2         -0.3790    4.1870    3.9800 c         1 MOL      0.792163
      3 O1          0.3950    4.2950    3.0450 o         1 MOL     -0.598916
      4 H1          1.2740    4.5310    5.3220 hc        1 MOL      0.081676
      5 H2         -0.3030    5.0760    5.9440 hc        1 MOL      0.081676
      6 H3          0.0890    3.3400    5.9080 hc        1 MOL      0.081676
      7 N1         -1.6770    3.9160    3.7830 n         1 MOL     -0.740100
      8 C3         -2.2830    3.4980    2.4900 c3        1 MOL      0.305379
      9 C4         -2.4280    4.6950    1.5310 c         1 MOL      0.631858
     10 O2         -2.9930    5.7450    1.8920 o         1 MOL     -0.620597
     11 C5         -3.6280    2.7830    2.7100 c3        1 MOL     -0.462023
     12 C6         -4.1400    2.1310    1.5120 c         1 MOL      0.897105
     13 O3         -5.2260    1.5480    1.7010 o         1 MOL     -0.689855
     14 O4         -3.4490    2.1130    0.4670 o         1 MOL     -0.689855
     15 H4         -2.3020    3.7340    4.5590 hn        1 MOL      0.336831
     16 H5         -1.5890    2.8130    1.9990 h1        1 MOL      0.030637
     17 H6         -4.3150    3.5050    3.1410 hc        1 MOL      0.088203
     18 H7         -3.4310    1.9450    3.3760 hc        1 MOL      0.088203
     19 N2         -1.9380    4.5200    0.3100 n         1 MOL     -0.554456
     20 C7         -1.8660    5.4570   -0.7450 c3        1 MOL      0.189681
     21 C8         -2.8060    5.0790   -1.9560 c         1 MOL      0.591859
     22 O5         -2.8490    5.8010   -2.9370 o         1 MOL     -0.589013
     23 C9         -0.4450    5.5120   -1.1350 c3        1 MOL     -0.150051
     24 H8         -1.5390    3.6000    0.1480 hn        1 MOL      0.342148
     25 H9         -2.1040    6.4740   -0.4300 h1        1 MOL      0.049014
     26 H10        -0.1560    4.5840   -1.6220 hc        1 MOL      0.031514
     27 H11        -0.3300    6.3580   -1.8080 hc        1 MOL      0.031514
     28 H12         0.1870    5.9180   -0.3430 hc        1 MOL      0.031514
     29 N3         -3.6700    4.0300   -1.8020 n         1 MOL     -0.591966
     30 C10        -4.4440    3.5150   -3.0000 c3        1 MOL      0.247190
     31 C11        -5.7490    2.8020   -2.5670 c         1 MOL      0.337641
     32 O6         -6.6170    2.5560   -3.3830 o         1 MOL     -0.542496
     33 C12        -3.5570    2.5320   -3.8530 c3        1 MOL     -0.366777
     34 C13        -3.0730    1.2900   -3.1120 c         1 MOL      0.901606
     35 O7         -3.6940    0.8520   -2.1070 o         1 MOL     -0.746797
     36 O8         -2.0220    0.7500   -3.4470 o         1 MOL     -0.746797
     37 H13        -3.4540    3.4410   -1.0090 hn        1 MOL      0.243260
     38 H14        -4.6510    4.4150   -3.5630 h1        1 MOL      0.072140
     39 H15        -2.7440    3.1380   -4.2440 hc        1 MOL      0.080926
     40 H16        -4.2970    2.2530   -4.6070 hc        1 MOL      0.080926
     41 N4         -5.9430    2.3530   -1.3020 n         1 MOL     -0.130894
     42 C14        -7.1610    1.6670   -0.8000 c3        1 MOL     -0.404169
     43 C15        -7.2050    0.1970   -1.1300 c         1 MOL      0.641890
     44 O9         -8.2350   -0.3960   -0.9560 o         1 MOL     -0.629913
     45 H17        -5.1760    2.3220   -0.6380 hn        1 MOL      0.090098
     46 H18        -8.0550    2.1630   -1.1840 h1        1 MOL      0.169949
     47 H19        -7.2300    1.7520    0.2860 h1        1 MOL      0.169949
     48 N5         -6.1850   -0.4860   -1.7120 n         1 MOL     -0.319736
     49 C16        -6.2410   -1.8720   -2.2170 c3        1 MOL      0.029315
     50 C17        -6.4410   -2.9870   -1.1610 c         1 MOL      0.475205
     51 O10        -6.6430   -4.1070   -1.6480 o         1 MOL     -0.583812
     52 C18        -5.0420   -2.1790   -3.1990 c3        1 MOL     -0.187760
     53 C19        -3.7270   -2.3610   -2.4850 c         1 MOL      0.599160
     54 N6         -2.6900   -2.6240   -3.2110 n         1 MOL     -0.562011
     55 O11        -3.4660   -2.0040   -1.3440 o         1 MOL     -0.591220
     56 H20        -5.3240   -0.0120   -1.9450 hn        1 MOL      0.284274
     57 H21        -7.2060   -2.0260   -2.7010 h1        1 MOL      0.061633
     58 H22        -4.9440   -1.4190   -3.9830 hc        1 MOL      0.055025
     59 H23        -5.2020   -3.1330   -3.6900 hc        1 MOL      0.055025
     60 H24        -2.8150   -2.9290   -4.1630 hn        1 MOL      0.293379
     61 H25        -1.7450   -2.5130   -2.8720 hn        1 MOL      0.293379
     62 N7         -6.2300   -2.7260    0.0740 n         1 MOL     -0.174384
     63 C20        -6.5900   -3.6620    1.1350 c3        1 MOL     -0.090851
     64 C21        -5.3050   -4.2580    1.7890 c         1 MOL      0.414969
     65 O12        -5.4680   -5.1430    2.6640 o         1 MOL     -0.584397
     66 H26        -5.9790   -1.7650    0.2650 hn        1 MOL      0.186166
     67 H27        -7.2530   -4.4830    0.8610 h1        1 MOL      0.086477
     68 H28        -7.1730   -3.1110    1.8660 h1        1 MOL      0.086477
     69 N8         -4.1330   -3.8590    1.3750 n         1 MOL     -0.151112
     70 C22        -2.8310   -4.3740    1.7060 c3        1 MOL     -0.159860
     71 C23        -1.7630   -3.2690    1.7190 c         1 MOL      0.479686
     72 O13        -1.7320   -2.5340    0.7790 o         1 MOL     -0.418747
     73 C24        -2.3430   -5.3720    0.5810 c3        1 MOL      0.443302
     74 C25        -3.0650   -6.7150    0.7080 c3        1 MOL     -0.467274
     75 O14        -2.7460   -4.9730   -0.6720 oh        1 MOL     -0.531739
     76 H29        -4.1290   -3.1840    0.6280 hn        1 MOL      0.201797
     77 H30        -2.9540   -4.7540    2.7230 h1        1 MOL      0.073036
     78 H31        -1.2790   -5.5430    0.7490 h1        1 MOL     -0.000592
     79 H32        -2.2460   -4.1850   -0.9180 ho        1 MOL      0.297807
     80 H33        -4.1400   -6.5880    0.8020 hc        1 MOL      0.115970
     81 H34        -2.8590   -7.4000   -0.1250 hc        1 MOL      0.115970
     82 H35        -2.6530   -7.1690    1.6130 hc        1 MOL      0.115970
     83 N9         -0.8280   -3.1740    2.6520 n         1 MOL     -0.498166
     84 C26         0.4610   -2.4480    2.3820 c3        1 MOL      0.039469
     85 C27         1.2310   -2.9850    1.1940 c         1 MOL      0.445942
     86 O15         1.5590   -4.1730    1.1520 o         1 MOL     -0.568761
     87 C28         1.3570   -2.4350    3.5930 c3        1 MOL      0.226204
     88 C29         0.6890   -1.4930    4.6630 c3        1 MOL      0.034168
     89 C30         2.8030   -1.8680    3.3630 c3        1 MOL     -0.395270
     90 C31         1.3290   -1.6970    6.0280 c3        1 MOL     -0.077825
     91 H36        -0.8270   -3.7920    3.4510 hn        1 MOL      0.299003
     92 H37         0.1640   -1.4270    2.1370 h1        1 MOL     -0.162997
     93 H38         1.3110   -3.4810    3.9060 hc        1 MOL     -0.017940
     94 H39        -0.3330   -1.8590    4.7590 hc        1 MOL      0.017917
     95 H40         0.7500   -0.4250    4.4650 hc        1 MOL      0.017917
     96 H41         3.3230   -1.9310    4.3250 hc        1 MOL      0.091154
     97 H42         3.3620   -2.5700    2.7380 hc        1 MOL      0.091154
     98 H43         2.8770   -0.8270    3.0590 hc        1 MOL      0.091154
     99 H44         0.5870   -1.4980    6.8020 hc        1 MOL      0.002600
    100 H45         1.4000   -2.7840    6.0740 hc        1 MOL      0.002600
    101 H46         2.2820   -1.1810    6.1380 hc        1 MOL      0.002600
    102 N10         1.6200   -2.0970    0.2980 n         1 MOL     -0.200161
    103 C32         2.5490   -2.2400   -0.8260 c3        1 MOL      0.134333
    104 C33         3.9380   -1.6780   -0.4940 c         1 MOL      0.494031
    105 O16         4.1030   -0.8950    0.4340 o         1 MOL     -0.389018
    106 C34         2.0040   -1.5960   -2.1730 c3        1 MOL     -0.538057
    107 C35         0.5430   -1.8650   -2.4460 c         1 MOL      0.907027
    108 O17        -0.2190   -1.2130   -1.7430 o         1 MOL     -0.716682
    109 O18         0.1160   -2.7380   -3.3100 o         1 MOL     -0.716682
    110 H47         1.2560   -1.1670    0.4540 hn        1 MOL      0.249929
    111 H48         2.7530   -3.3090   -0.8440 h1        1 MOL      0.050310
    112 H49         2.5820   -1.9770   -3.0180 hc        1 MOL      0.117162
    113 H50         2.2040   -0.5390   -2.0380 hc        1 MOL      0.117162
    114 N11         5.0260   -1.9160   -1.2580 n         1 MOL     -0.676314
    115 C36         6.4560   -1.7910   -0.9090 c3        1 MOL      0.415404
    116 C37         6.8960   -0.3560   -0.6920 c         1 MOL      0.405847
    117 O19         7.5400   -0.1120    0.3440 o         1 MOL     -0.499111
    118 C38         7.3560   -2.5600   -1.8970 c3        1 MOL     -0.393493
    119 C39         8.8380   -2.0830   -1.9200 ca        1 MOL      0.078554
    120 C40         9.7440   -2.2460   -0.7970 ca        1 MOL     -0.114188
    121 C41         9.3060   -1.5570   -3.1310 ca        1 MOL     -0.114188
    122 C42        11.1100   -1.8200   -0.9050 ca        1 MOL     -0.164510
    123 C43        10.6720   -1.2370   -3.2700 ca        1 MOL     -0.164510
    124 C44        11.5180   -1.2560   -2.1340 ca        1 MOL     -0.071747
    125 H51         4.8120   -2.4190   -2.1150 hn        1 MOL      0.316986
    126 H52         6.5140   -2.2570    0.0790 h1        1 MOL      0.039558
    127 H53         6.9030   -2.6620   -2.8750 hc        1 MOL      0.113577
    128 H54         7.4820   -3.5870   -1.5350 hc        1 MOL      0.113577
    129 H55         9.3670   -2.5590    0.1630 ha        1 MOL      0.117252
    130 H56         8.6320   -1.3850   -3.9550 ha        1 MOL      0.117252
    131 H57        11.7850   -1.8010   -0.0660 ha        1 MOL      0.126780
    132 H58        11.0280   -0.9610   -4.2620 ha        1 MOL      0.126780
    133 H59        12.5350   -0.9120   -2.2260 ha        1 MOL      0.092430
    134 N12         6.4840    0.5800   -1.5910 n         1 MOL     -0.166157
    135 C45         6.7290    2.0020   -1.3570 c3        1 MOL      0.101758
    136 C46         5.9210    2.5280   -0.1050 c         1 MOL      0.344001
    137 O20         6.3600    3.4740    0.4730 o         1 MOL     -0.480722
    138 C47         6.3000    2.7670   -2.6420 c3        1 MOL     -0.086558
    139 C48         6.4840    1.6620   -3.6950 c3        1 MOL      0.003494
    140 C49         5.9710    0.4540   -3.0060 c3        1 MOL     -0.180976
    141 H60         7.7510    2.1750   -1.0460 h1        1 MOL      0.053535
    142 H61         5.2580    3.0880   -2.6600 hc        1 MOL      0.056347
    143 H62         7.0130    3.5710   -2.8030 hc        1 MOL      0.056347
    144 H63         5.8320    1.9000   -4.5430 hc        1 MOL      0.020364
    145 H64         7.4960    1.5530   -4.0920 hc        1 MOL      0.020364
    146 H65         4.8890    0.5020   -3.0840 h1        1 MOL      0.112012
    147 H66         6.3560   -0.4750   -3.4390 h1        1 MOL      0.112012
    148 N13         4.7570    1.8900    0.2240 n         1 MOL     -0.206263
    149 C50         4.1020    2.2650    1.4630 c3        1 MOL     -0.184561
    150 C51         4.8400    1.6290    2.6710 c         1 MOL      0.439076
    151 O21         4.8870    2.2680    3.7390 o         1 MOL     -0.590862
    152 C52         2.6040    1.8650    1.5460 c3        1 MOL     -0.018989
    153 C53         1.8460    2.2870    0.2640 c3        1 MOL      0.032435
    154 C54         0.4080    1.8200    0.2980 c         1 MOL      0.406309
    155 O22         0.0100    0.9180    1.0770 o         1 MOL     -0.603018
    156 O23        -0.4140    2.1730   -0.5600 o         1 MOL     -0.603018
    157 H67         4.3910    1.0840   -0.2610 hn        1 MOL      0.168534
    158 H68         4.2080    3.3500    1.5530 h1        1 MOL      0.138915
    159 H69         2.1380    2.3390    2.4110 hc        1 MOL      0.072270
    160 H70         2.5860    0.7850    1.7010 hc        1 MOL      0.072270
    161 H71         2.2880    2.0300   -0.6970 hc        1 MOL      0.042377
    162 H72         1.9340    3.3710    0.2860 hc        1 MOL      0.042377
    163 N14         5.4970    0.5140    2.5570 n         1 MOL      0.085111
    164 C55         6.2810   -0.1330    3.6000 c3        1 MOL     -0.158906
    165 H73         5.9550    0.2290    4.5750 h1        1 MOL      0.060152
    166 H74         6.1380   -1.2120    3.5460 h1        1 MOL      0.060152
    167 H75         7.3360    0.1010    3.4600 h1        1 MOL      0.060152
    168 H76         5.5160    0.1060    1.6280 hn        1 MOL      0.005551
    169 Ca1        -2.1360    0.0820   -0.3480 Ca        1 MOL      1.678160
    170 O24        -4.2770   -0.8290    1.0410 oh        1 MOL     -0.636131
    171 H77        -4.8560   -0.0990    1.2750 ho        1 MOL      0.309556
    172 H78        -3.9190   -1.1230    1.8780 ho        1 MOL      0.309556
    173 O25        -1.9000   -0.1690    2.4800 oh        1 MOL     -0.636131
    174 H79        -1.0860    0.3160    2.3150 ho        1 MOL      0.309556
    175 H80        -1.9350   -0.2440    3.4330 ho        1 MOL      0.309556
@<TRIPOS>BOND
     1    1    2 1   
     2    1    4 1   
     3    1    5 1   
     4    1    6 1   
     5    2    3 2   
     6    2    7 1   
     7    7    8 1   
     8    7   15 1   
     9    8    9 1   
    10    8   11 1   
    11    8   16 1   
    12    9   10 2   
    13    9   19 1   
    14   11   12 1   
    15   11   17 1   
    16   11   18 1   
    17   12   13 1   
    18   12   14 1   
    19   19   20 1   
    20   19   24 1   
    21   20   21 1   
    22   20   23 1   
    23   20   25 1   
    24   21   22 2   
    25   21   29 1   
    26   23   26 1   
    27   23   27 1   
    28   23   28 1   
    29   29   30 1   
    30   29   37 1   
    31   30   31 1   
    32   30   33 1   
    33   30   38 1   
    34   31   32 2   
    35   31   41 1   
    36   33   34 1   
    37   33   39 1   
    38   33   40 1   
    39   34   35 1   
    40   34   36 1   
    41   41   42 1   
    42   41   45 1   
    43   42   43 1   
    44   42   46 1   
    45   42   47 1   
    46   43   44 2   
    47   43   48 1   
    48   48   49 1   
    49   48   56 1   
    50   49   50 1   
    51   49   52 1   
    52   49   57 1   
    53   50   51 2   
    54   50   62 1   
    55   52   53 1   
    56   52   58 1   
    57   52   59 1   
    58   53   54 1   
    59   53   55 2   
    60   54   60 1   
    61   54   61 1   
    62   62   63 1   
    63   62   66 1   
    64   63   64 1   
    65   63   67 1   
    66   63   68 1   
    67   64   65 2   
    68   64   69 1   
    69   69   70 1   
    70   69   76 1   
    71   70   71 1   
    72   70   73 1   
    73   70   77 1   
    74   71   72 2   
    75   71   83 1   
    76   73   74 1   
    77   73   75 1   
    78   73   78 1   
    79   74   80 1   
    80   74   81 1   
    81   74   82 1   
    82   75   79 1   
    83   83   84 1   
    84   83   91 1   
    85   84   85 1   
    86   84   87 1   
    87   84   92 1   
    88   85   86 2   
    89   85  102 1   
    90   87   88 1   
    91   87   89 1   
    92   87   93 1   
    93   88   90 1   
    94   88   94 1   
    95   88   95 1   
    96   89   96 1   
    97   89   97 1   
    98   89   98 1   
    99   90   99 1   
   100   90  100 1   
   101   90  101 1   
   102  102  103 1   
   103  102  110 1   
   104  103  104 1   
   105  103  106 1   
   106  103  111 1   
   107  104  105 2   
   108  104  114 1   
   109  106  107 1   
   110  106  112 1   
   111  106  113 1   
   112  107  108 1   
   113  107  109 1   
   114  114  115 1   
   115  114  125 1   
   116  115  116 1   
   117  115  118 1   
   118  115  126 1   
   119  116  117 2   
   120  116  134 1   
   121  118  119 1   
   122  118  127 1   
   123  118  128 1   
   124  119  120 ar  
   125  119  121 ar  
   126  120  122 ar  
   127  120  129 1   
   128  121  123 ar  
   129  121  130 1   
   130  122  124 ar  
   131  122  131 1   
   132  123  124 ar  
   133  123  132 1   
   134  124  133 1   
   135  134  135 1   
   136  134  140 1   
   137  135  136 1   
   138  135  138 1   
   139  135  141 1   
   140  136  137 2   
   141  136  148 1   
   142  138  139 1   
   143  138  142 1   
   144  138  143 1   
   145  139  140 1   
   146  139  144 1   
   147  139  145 1   
   148  140  146 1   
   149  140  147 1   
   150  148  149 1   
   151  148  157 1   
   152  149  150 1   
   153  149  152 1   
   154  149  158 1   
   155  150  151 2   
   156  150  163 1   
   157  152  153 1   
   158  152  159 1   
   159  152  160 1   
   160  153  154 1   
   161  153  161 1   
   162  153  162 1   
   163  154  155 1   
   164  154  156 1   
   165  163  164 1   
   166  163  168 1   
   167  164  165 1   
   168  164  166 1   
   169  164  167 1   
   170  170  171 1   
   171  170  172 1   
   172  173  174 1   
   173  173  175 1   
@<TRIPOS>SUBSTRUCTURE
     1 MOL         1 TEMP              0 ****  ****    0 ROOT
