@<TRIPOS>MOLECULE
MOL
  186   183     1     0     0
SMALL
resp


@<TRIPOS>ATOM
      1 C1         -0.5880   -3.4270   -5.6100 c3        1 MOL     -0.276178
      2 C2         -0.9360   -3.0970   -4.1390 c         1 MOL      0.651531
      3 O1         -0.3300   -3.7210   -3.2470 o         1 MOL     -0.555305
      4 H1         -0.7530   -2.5460   -6.2290 hc        1 MOL      0.060867
      5 H2          0.4570   -3.7270   -5.6770 hc        1 MOL      0.060867
      6 H3         -1.2240   -4.2410   -5.9600 hc        1 MOL      0.060867
      7 N1         -1.9840   -2.3020   -3.9340 n         1 MOL     -0.488931
      8 C3         -2.6450   -2.0110   -2.6720 c3        1 MOL      0.247031
      9 C4         -3.2820   -3.3290   -2.0810 c         1 MOL      0.413165
     10 O2         -4.3010   -3.8040   -2.6340 o         1 MOL     -0.560683
     11 C5         -3.6900   -0.9240   -2.8300 c3        1 MOL     -0.472160
     12 C6         -4.5000   -0.6140   -1.5850 c         1 MOL      0.925293
     13 O3         -5.5210    0.0140   -1.6740 o         1 MOL     -0.709497
     14 O4         -4.0580   -1.0470   -0.4970 o         1 MOL     -0.709497
     15 H4         -2.4050   -2.0110   -4.7970 hn        1 MOL      0.291392
     16 H5         -1.9580   -1.7850   -1.8540 h1        1 MOL     -0.006373
     17 H6         -4.3780   -1.1340   -3.6440 hc        1 MOL      0.098478
     18 H7         -3.1950   -0.0130   -3.1550 hc        1 MOL      0.098478
     19 N2         -2.6630   -3.9130   -1.0470 n         1 MOL     -0.273130
     20 C7         -3.0510   -5.1680   -0.4290 c3        1 MOL      0.003364
     21 C8         -4.1990   -4.9320    0.6000 c         1 MOL      0.434611
     22 O5         -5.0640   -5.8090    0.6580 o         1 MOL     -0.582587
     23 C9         -1.8200   -5.8020    0.2200 c3        1 MOL      0.182237
     24 C10        -0.5270   -5.8190   -0.5900 c3        1 MOL      0.171541
     25 C11        -2.1710   -7.2280    0.7400 c3        1 MOL     -0.247066
     26 C12        -0.5640   -6.8520   -1.7300 c3        1 MOL     -0.451067
     27 H8         -1.9270   -3.4710   -0.5260 hn        1 MOL      0.307046
     28 H9         -3.4300   -5.8520   -1.1910 h1        1 MOL      0.059681
     29 H10        -1.6430   -5.0420    0.9740 hc        1 MOL     -0.070520
     30 H11         0.2710   -6.0360    0.1290 hc        1 MOL     -0.029660
     31 H12        -0.4150   -4.8330   -1.0400 hc        1 MOL     -0.029660
     32 H13        -2.8480   -7.1080    1.5850 hc        1 MOL      0.043394
     33 H14        -2.3550   -7.9330   -0.0650 hc        1 MOL      0.043394
     34 H15        -1.2900   -7.6230    1.2550 hc        1 MOL      0.043394
     35 H16        -1.4310   -6.7080   -2.3770 hc        1 MOL      0.108944
     36 H17         0.3890   -6.6670   -2.2150 hc        1 MOL      0.108944
     37 H18        -0.6590   -7.8420   -1.2820 hc        1 MOL      0.108944
     38 N3         -4.2230   -3.8240    1.3590 n         1 MOL     -0.198196
     39 C13        -5.2850   -3.6810    2.4330 c3        1 MOL     -0.045195
     40 C14        -6.5530   -2.9580    1.9410 c         1 MOL      0.395336
     41 O6         -7.5530   -3.0860    2.6410 o         1 MOL     -0.555712
     42 C15        -4.7870   -3.0230    3.7090 c3        1 MOL     -0.247706
     43 C16        -4.0410   -1.6790    3.6170 c         1 MOL      0.777327
     44 O7         -3.7090   -1.2060    4.7210 o         1 MOL     -0.731785
     45 O8         -4.0180   -0.9760    2.6000 o         1 MOL     -0.731785
     46 H19        -3.5040   -3.1200    1.2030 hn        1 MOL      0.156007
     47 H20        -5.5770   -4.6820    2.7470 h1        1 MOL      0.112860
     48 H21        -4.2410   -3.6920    4.3800 hc        1 MOL      0.065674
     49 H22        -5.7080   -2.8000    4.2560 hc        1 MOL      0.065674
     50 N4         -6.5020   -2.2030    0.8190 n         1 MOL     -0.053284
     51 C17        -7.5940   -1.5700    0.0690 c3        1 MOL     -0.239933
     52 C18        -7.9890   -0.1800    0.5240 c         1 MOL      0.612324
     53 O9         -9.1480    0.2200    0.5430 o         1 MOL     -0.636353
     54 H23        -5.5910   -2.1950    0.3920 hn        1 MOL      0.159656
     55 H24        -8.4740   -2.1920    0.2460 h1        1 MOL      0.088219
     56 H25        -7.2760   -1.6710   -0.9600 h1        1 MOL      0.088219
     57 N5         -7.0190    0.5560    0.9650 n         1 MOL     -0.234609
     58 C19        -7.1810    2.0200    1.4950 c3        1 MOL     -0.044738
     59 C20        -7.0900    3.1370    0.3640 c         1 MOL      0.443226
     60 O10        -7.2380    4.3410    0.6350 o         1 MOL     -0.550324
     61 C21        -6.1730    2.2850    2.5720 c3        1 MOL     -0.383121
     62 C22        -4.6930    2.1360    2.1650 c         1 MOL      0.864149
     63 O11        -4.2900    1.8890    1.0140 o         1 MOL     -0.769956
     64 O12        -3.7990    2.2510    3.0550 o         1 MOL     -0.769956
     65 H26        -6.0840    0.1800    1.0000 hn        1 MOL      0.179023
     66 H27        -8.1700    2.0980    1.9560 h1        1 MOL      0.120577
     67 H28        -6.4230    1.4930    3.2760 hc        1 MOL      0.128044
     68 H29        -6.2950    3.2560    3.0510 hc        1 MOL      0.128044
     69 N6         -6.8170    2.7450   -0.8780 n         1 MOL     -0.241115
     70 C23        -6.5780    3.5600   -2.0580 c3        1 MOL     -0.245562
     71 C24        -5.1410    4.1900   -2.1860 c         1 MOL      0.604621
     72 O13        -4.8560    4.8640   -3.1420 o         1 MOL     -0.609133
     73 H30        -6.3940    1.8370   -1.0100 hn        1 MOL      0.248954
     74 H31        -7.2690    4.3860   -1.9060 h1        1 MOL      0.110891
     75 H32        -6.7930    2.9630   -2.9360 h1        1 MOL      0.110891
     76 N7         -4.2060    3.8650   -1.2750 n         1 MOL     -0.280606
     77 C25        -2.7980    4.2990   -1.3420 c3        1 MOL     -0.054655
     78 C26        -1.8930    3.1080   -1.5930 c         1 MOL      0.808976
     79 O14        -2.2600    2.0310   -1.1490 o         1 MOL     -0.697227
     80 C27        -2.4750    5.0940   -0.0510 c3        1 MOL     -0.063132
     81 C28        -2.9360    6.6070   -0.2710 c3        1 MOL     -0.189934
     82 C29        -2.4870    7.5780    0.8120 c         1 MOL      0.622737
     83 N8         -2.9190    7.5010    2.0550 n         1 MOL     -0.762930
     84 O15        -1.6680    8.4660    0.5020 o         1 MOL     -0.594912
     85 H33        -4.5460    3.2300   -0.5620 hn        1 MOL      0.223137
     86 H34        -2.7180    4.9780   -2.1930 h1        1 MOL      0.076762
     87 H35        -1.4120    4.9200    0.1550 hc        1 MOL      0.058174
     88 H36        -2.9030    4.7120    0.8780 hc        1 MOL      0.058174
     89 H37        -4.0230    6.5870   -0.2850 hc        1 MOL      0.074276
     90 H38        -2.6370    7.0040   -1.2410 hc        1 MOL      0.074276
     91 H39        -3.5780    6.8290    2.4140 hn        1 MOL      0.354676
     92 H40        -2.4770    8.1350    2.7130 hn        1 MOL      0.354676
     93 N9         -0.7980    3.2970   -2.3110 n         1 MOL     -0.678239
     94 C30         0.3150    2.2450   -2.3730 c3        1 MOL      0.086576
     95 C31         1.4310    2.7280   -1.5070 c         1 MOL      0.382383
     96 O16         2.1630    3.6510   -1.9070 o         1 MOL     -0.552995
     97 C32         0.7360    1.9960   -3.8110 c3        1 MOL      0.228839
     98 C33         2.1270    1.3060   -3.9160 c3        1 MOL     -0.316733
     99 C34        -0.3580    1.0820   -4.4910 c3        1 MOL     -0.316733
    100 H41        -0.6110    4.2260   -2.6540 hn        1 MOL      0.337714
    101 H42        -0.0060    1.3190   -1.8910 h1        1 MOL      0.126488
    102 H43         0.6890    2.9300   -4.3690 hc        1 MOL      0.005777
    103 H44         2.8570    1.9820   -3.4870 hc        1 MOL      0.064760
    104 H45         2.2610    0.4390   -3.2640 hc        1 MOL      0.064760
    105 H46         2.3050    1.0600   -4.9690 hc        1 MOL      0.064760
    106 H47        -0.5650    0.2000   -3.8930 hc        1 MOL      0.064760
    107 H48        -1.3240    1.5820   -4.4990 hc        1 MOL      0.064760
    108 H49        -0.1470    0.9670   -5.5620 hc        1 MOL      0.064760
    109 N10         1.7290    2.0420   -0.3980 n         1 MOL     -0.125705
    110 C35         2.8800    2.3330    0.4960 c3        1 MOL     -0.013220
    111 C36         4.2170    1.7930   -0.1600 c         1 MOL      0.352531
    112 O17         4.2410    0.8610   -1.0200 o         1 MOL     -0.261528
    113 C37         2.6270    1.7350    1.8950 c3        1 MOL     -0.252628
    114 C38         3.7020    1.9360    2.9010 c         1 MOL      0.611918
    115 N11         3.6900    3.0810    3.5670 n         1 MOL     -0.757891
    116 O18         4.6170    1.0890    3.0250 o         1 MOL     -0.472603
    117 H50         1.1710    1.2360   -0.1600 hn        1 MOL      0.132667
    118 H51         2.8910    3.4260    0.4740 h1        1 MOL      0.078703
    119 H52         2.4250    0.6610    1.8570 hc        1 MOL      0.105959
    120 H53         1.6700    2.1800    2.1870 hc        1 MOL      0.105959
    121 H54         3.0680    3.8500    3.3500 hn        1 MOL      0.354540
    122 H55         4.4370    3.2920    4.2170 hn        1 MOL      0.354540
    123 N12         5.3330    2.3560    0.2220 n         1 MOL     -0.461037
    124 C39         6.6340    1.7770   -0.2450 c3        1 MOL      0.236198
    125 C40         6.8570    0.3190   -0.1110 c         1 MOL      0.749656
    126 O19         7.1490   -0.4070   -1.1040 o         1 MOL     -0.593430
    127 C41         7.7790    2.5860    0.3390 c3        1 MOL     -0.185991
    128 C42         9.2210    2.1820   -0.0820 ca        1 MOL      0.086037
    129 C43         9.6130    2.3560   -1.4440 ca        1 MOL     -0.281744
    130 C44        10.0030    1.4650    0.8360 ca        1 MOL     -0.281744
    131 C45        10.7070    1.6430   -1.9590 ca        1 MOL     -0.120456
    132 C46        11.1540    0.8190    0.3660 ca        1 MOL     -0.120456
    133 C47        11.5190    0.9150   -1.0230 ca        1 MOL      0.205085
    134 O20        12.6720    0.3360   -1.4980 oh        1 MOL     -0.466811
    135 H56         5.1850    3.2770    0.6160 hn        1 MOL      0.271405
    136 H57         6.6420    1.7420   -1.3380 h1        1 MOL     -0.016186
    137 H58         7.6380    2.5530    1.4120 hc        1 MOL      0.062576
    138 H59         7.6820    3.6300    0.0160 hc        1 MOL      0.062576
    139 H60         9.0390    3.0200   -2.0780 ha        1 MOL      0.169955
    140 H61         9.6610    1.3400    1.8580 ha        1 MOL      0.169955
    141 H62        11.0850    1.6290   -2.9750 ha        1 MOL      0.124183
    142 H63        11.8670    0.3500    1.0370 ha        1 MOL      0.124183
    143 H64        13.1640    0.0350   -0.7290 ho        1 MOL      0.347001
    144 N13         6.5440   -0.1700    1.0710 n         1 MOL     -0.491151
    145 C48         6.4560   -1.6560    1.3590 c3        1 MOL     -0.068643
    146 C49         5.4060   -2.4420    0.5130 c         1 MOL      0.327847
    147 O21         5.4380   -3.6730    0.4970 o         1 MOL     -0.528844
    148 C50         6.3360   -2.0620    2.8530 c3        1 MOL      0.120187
    149 C51         7.3080   -1.3020    3.8640 c3        1 MOL     -0.192202
    150 C52         7.2450   -1.8210    5.2670 c         1 MOL      0.739077
    151 O22         6.2730   -1.4830    5.9420 o         1 MOL     -0.753672
    152 O23         8.1990   -2.4620    5.7220 o         1 MOL     -0.753672
    153 H65         6.3070    0.5230    1.7610 hn        1 MOL      0.230630
    154 H66         7.4540   -1.9680    1.0630 h1        1 MOL      0.112346
    155 H67         6.6430   -3.1040    2.9980 hc        1 MOL      0.014302
    156 H68         5.3290   -2.0180    3.2620 hc        1 MOL      0.014302
    157 H69         6.8740   -0.2960    3.9130 hc        1 MOL      0.005293
    158 H70         8.3200   -1.3570    3.4740 hc        1 MOL      0.005293
    159 N14         4.4620   -1.8160   -0.2020 n         1 MOL     -0.085201
    160 C53         3.4860   -2.3980   -1.1140 c3        1 MOL     -0.073001
    161 C54         3.9530   -2.3500   -2.5420 c         1 MOL      0.441000
    162 O24         3.5120   -3.0970   -3.3400 o         1 MOL     -0.567590
    163 C55         2.1730   -1.7770   -1.0380 c3        1 MOL      0.307753
    164 C56         1.3290   -2.3040    0.1430 c3        1 MOL     -0.093684
    165 C57         0.0240   -1.4590    0.2550 c         1 MOL      0.619937
    166 O25        -1.0880   -2.1130    0.2230 o         1 MOL     -0.708681
    167 O26        -0.0190   -0.1870    0.3200 o         1 MOL     -0.708681
    168 H71         4.5160   -0.7990   -0.1350 hn        1 MOL      0.075816
    169 H72         3.3210   -3.4360   -0.8080 h1        1 MOL      0.091927
    170 H73         1.6270   -1.9540   -1.9670 hc        1 MOL     -0.050308
    171 H74         2.3510   -0.7080   -0.8910 hc        1 MOL     -0.050308
    172 H75         1.9200   -2.1480    1.0420 hc        1 MOL      0.008482
    173 H76         1.0750   -3.3400   -0.0650 hc        1 MOL      0.008482
    174 N15         4.7220   -1.3180   -2.8780 n         1 MOL     -0.009466
    175 C58         5.4510   -1.1420   -4.1820 c3        1 MOL     -0.271716
    176 H77         5.2440   -0.1500   -4.5840 h1        1 MOL      0.097633
    177 H78         6.5230   -1.2500   -4.0170 h1        1 MOL      0.097633
    178 H79         5.1150   -1.8980   -4.8920 h1        1 MOL      0.097633
    179 H80         4.8520   -0.6670   -2.1210 hn        1 MOL      0.018480
    180 Ca1        -2.3700    0.2970    1.0590 Ca        1 MOL      1.754324
    181 O27        -1.0340   -0.6930    3.1160 oh        1 MOL     -0.860465
    182 H81        -0.8050   -1.6220    3.2360 ho        1 MOL      0.414666
    183 H82        -0.7680   -0.2790    3.9440 ho        1 MOL      0.414666
    184 O28        -1.0410    2.3400    2.4770 oh        1 MOL     -0.860465
    185 H83        -0.4890    1.8630    3.1020 ho        1 MOL      0.414666
    186 H84        -1.7530    2.6920    3.0040 ho        1 MOL      0.414666
@<TRIPOS>BOND
     1    1    2 1   
     2    1    4 1   
     3    1    5 1   
     4    1    6 1   
     5    2    3 2   
     6    2    7 1   
     7    7    8 1   
     8    7   15 1   
     9    8    9 1   
    10    8   11 1   
    11    8   16 1   
    12    9   10 2   
    13    9   19 1   
    14   11   12 1   
    15   11   17 1   
    16   11   18 1   
    17   12   13 1   
    18   12   14 1   
    19   19   20 1   
    20   19   27 1   
    21   20   21 1   
    22   20   23 1   
    23   20   28 1   
    24   21   22 2   
    25   21   38 1   
    26   23   24 1   
    27   23   25 1   
    28   23   29 1   
    29   24   26 1   
    30   24   30 1   
    31   24   31 1   
    32   25   32 1   
    33   25   33 1   
    34   25   34 1   
    35   26   35 1   
    36   26   36 1   
    37   26   37 1   
    38   38   39 1   
    39   38   46 1   
    40   39   40 1   
    41   39   42 1   
    42   39   47 1   
    43   40   41 2   
    44   40   50 1   
    45   42   43 1   
    46   42   48 1   
    47   42   49 1   
    48   43   44 1   
    49   43   45 1   
    50   50   51 1   
    51   50   54 1   
    52   51   52 1   
    53   51   55 1   
    54   51   56 1   
    55   52   53 2   
    56   52   57 1   
    57   57   58 1   
    58   57   65 1   
    59   58   59 1   
    60   58   61 1   
    61   58   66 1   
    62   59   60 2   
    63   59   69 1   
    64   61   62 1   
    65   61   67 1   
    66   61   68 1   
    67   62   63 1   
    68   62   64 1   
    69   69   70 1   
    70   69   73 1   
    71   70   71 1   
    72   70   74 1   
    73   70   75 1   
    74   71   72 2   
    75   71   76 1   
    76   76   77 1   
    77   76   85 1   
    78   77   78 1   
    79   77   80 1   
    80   77   86 1   
    81   78   79 2   
    82   78   93 1   
    83   80   81 1   
    84   80   87 1   
    85   80   88 1   
    86   81   82 1   
    87   81   89 1   
    88   81   90 1   
    89   82   83 1   
    90   82   84 2   
    91   83   91 1   
    92   83   92 1   
    93   93   94 1   
    94   93  100 1   
    95   94   95 1   
    96   94   97 1   
    97   94  101 1   
    98   95   96 2   
    99   95  109 1   
   100   97   98 1   
   101   97   99 1   
   102   97  102 1   
   103   98  103 1   
   104   98  104 1   
   105   98  105 1   
   106   99  106 1   
   107   99  107 1   
   108   99  108 1   
   109  109  110 1   
   110  109  117 1   
   111  110  111 1   
   112  110  113 1   
   113  110  118 1   
   114  111  112 2   
   115  111  123 1   
   116  113  114 1   
   117  113  119 1   
   118  113  120 1   
   119  114  115 1   
   120  114  116 2   
   121  115  121 1   
   122  115  122 1   
   123  123  124 1   
   124  123  135 1   
   125  124  125 1   
   126  124  127 1   
   127  124  136 1   
   128  125  126 2   
   129  125  144 1   
   130  127  128 1   
   131  127  137 1   
   132  127  138 1   
   133  128  129 ar  
   134  128  130 ar  
   135  129  131 ar  
   136  129  139 1   
   137  130  132 ar  
   138  130  140 1   
   139  131  133 ar  
   140  131  141 1   
   141  132  133 ar  
   142  132  142 1   
   143  133  134 1   
   144  134  143 1   
   145  144  145 1   
   146  144  153 1   
   147  145  146 1   
   148  145  148 1   
   149  145  154 1   
   150  146  147 2   
   151  146  159 1   
   152  148  149 1   
   153  148  155 1   
   154  148  156 1   
   155  149  150 1   
   156  149  157 1   
   157  149  158 1   
   158  150  151 1   
   159  150  152 1   
   160  159  160 1   
   161  159  168 1   
   162  160  161 1   
   163  160  163 1   
   164  160  169 1   
   165  161  162 2   
   166  161  174 1   
   167  163  164 1   
   168  163  170 1   
   169  163  171 1   
   170  164  165 1   
   171  164  172 1   
   172  164  173 1   
   173  165  166 1   
   174  165  167 1   
   175  174  175 1   
   176  174  179 1   
   177  175  176 1   
   178  175  177 1   
   179  175  178 1   
   180  181  182 1   
   181  181  183 1   
   182  184  185 1   
   183  184  186 1   
@<TRIPOS>SUBSTRUCTURE
     1 MOL         1 TEMP              0 ****  ****    0 ROOT
