@<TRIPOS>MOLECULE
MOL
  176   174     1     0     0
SMALL
resp


@<TRIPOS>ATOM
      1 C1          0.7920    2.4550    6.8720 c3        1 MOL     -0.166188
      2 C2          0.7670    2.0350    5.3610 c         1 MOL      0.646647
      3 O1          1.8670    1.7280    4.7740 o         1 MOL     -0.575162
      4 H1          0.3700    3.4550    6.9790 hc        1 MOL      0.048822
      5 H2          0.2020    1.7480    7.4560 hc        1 MOL      0.048822
      6 H3          1.8210    2.4540    7.2330 hc        1 MOL      0.048822
      7 N1         -0.3170    2.0990    4.6680 n         1 MOL     -0.543686
      8 C3         -0.3490    2.0300    3.2120 c3        1 MOL     -0.119869
      9 C4         -0.1380    3.4230    2.5520 c         1 MOL      0.817357
     10 O2         -0.6050    4.4780    2.9780 o         1 MOL     -0.608325
     11 C5         -1.8020    1.5030    2.8490 c3        1 MOL     -0.191333
     12 C6         -2.0690    1.3660    1.3610 c         1 MOL      0.670871
     13 O3         -1.7600    2.2160    0.5080 o         1 MOL     -0.617583
     14 O4         -2.5030    0.3040    0.9190 o         1 MOL     -0.617583
     15 H4         -1.1510    2.4500    5.1130 hn        1 MOL      0.315301
     16 H5          0.3970    1.3120    2.8750 h1        1 MOL      0.103873
     17 H6         -2.4990    2.2310    3.2790 hc        1 MOL      0.068724
     18 H7         -1.9560    0.5470    3.3490 hc        1 MOL      0.068724
     19 N2          0.5710    3.4440    1.4430 n         1 MOL     -0.526521
     20 C7          1.0580    4.6590    0.8160 c3        1 MOL     -0.069403
     21 C8         -0.0030    5.5090    0.0410 c         1 MOL      0.501584
     22 O5          0.2220    6.7290   -0.1520 o         1 MOL     -0.586997
     23 C9          2.2620    4.2770   -0.1140 c3        1 MOL     -0.012155
     24 C10         2.9910    5.4480   -0.7940 c3        1 MOL     -0.081151
     25 C11         4.0920    4.8900   -1.7540 c3        1 MOL      0.104486
     26 C12         4.8110    5.9550   -2.6600 c3        1 MOL     -0.171457
     27 N3          3.9980    6.4140   -3.8240 n4        1 MOL     -0.250250
     28 H8          0.6870    2.5830    0.9230 hn        1 MOL      0.263067
     29 H9          1.4440    5.2870    1.6210 h1        1 MOL      0.126907
     30 H10         1.9660    3.5760   -0.8990 hc        1 MOL      0.060517
     31 H11         3.0000    3.7220    0.4520 hc        1 MOL      0.060517
     32 H12         3.4490    6.2150   -0.1710 hc        1 MOL      0.031957
     33 H13         2.2890    5.9240   -1.4780 hc        1 MOL      0.031957
     34 H14         3.6380    4.0930   -2.3430 hc        1 MOL      0.020104
     35 H15         4.9070    4.3310   -1.2710 hc        1 MOL      0.020104
     36 H16         5.6920    5.4920   -3.1150 hx        1 MOL      0.139248
     37 H17         5.1210    6.7850   -2.0230 hx        1 MOL      0.139248
     38 H18         4.4070    7.2350   -4.2450 hn        1 MOL      0.302475
     39 H19         3.9030    5.7300   -4.5580 hn        1 MOL      0.302475
     40 H20         3.0720    6.7490   -3.5890 hn        1 MOL      0.302475
     41 N4         -1.0740    4.8780   -0.4330 n         1 MOL     -0.214552
     42 C13        -2.1030    5.4790   -1.2920 c3        1 MOL      0.038698
     43 C14        -3.4820    5.3070   -0.6640 c         1 MOL      0.396468
     44 O6         -4.4360    5.8680   -1.1510 o         1 MOL     -0.525959
     45 C15        -2.0100    4.8320   -2.7120 c3        1 MOL     -0.241476
     46 C16        -2.0500    3.2870   -2.7960 c         1 MOL      0.792429
     47 O7         -1.0420    2.6410   -3.2300 o         1 MOL     -0.748782
     48 O8         -2.9570    2.6230   -2.2760 o         1 MOL     -0.748782
     49 H21        -1.2080    3.9120   -0.1760 hn        1 MOL      0.146673
     50 H22        -1.9360    6.5590   -1.2920 h1        1 MOL      0.103110
     51 H23        -1.0400    5.0890   -3.1360 hc        1 MOL      0.050816
     52 H24        -2.8240    5.1810   -3.3500 hc        1 MOL      0.050816
     53 N5         -3.5740    4.5340    0.3780 n         1 MOL     -0.088434
     54 C17        -4.7830    4.3090    1.1380 c3        1 MOL     -0.153340
     55 C18        -5.7580    3.3210    0.5370 c         1 MOL      0.496646
     56 O9         -6.9240    3.4730    0.9140 o         1 MOL     -0.556468
     57 H25        -2.7170    4.2090    0.8030 hn        1 MOL      0.105620
     58 H26        -5.2440    5.2990    1.1380 h1        1 MOL      0.096948
     59 H27        -4.5910    3.9770    2.1530 h1        1 MOL      0.096948
     60 N6         -5.3920    2.4280   -0.4160 n         1 MOL     -0.200903
     61 C19        -6.2870    1.4190   -1.0290 c3        1 MOL     -0.035690
     62 C20        -6.4180    0.1490   -0.1370 c         1 MOL      0.345764
     63 O10        -7.1790   -0.7710   -0.5130 o         1 MOL     -0.510672
     64 C21        -5.8720    0.9780   -2.4690 c3        1 MOL     -0.282987
     65 C22        -4.9960   -0.2640   -2.5540 c         1 MOL      0.770279
     66 N7         -5.3710   -1.2660   -3.2440 n         1 MOL     -0.761929
     67 O11        -3.9080   -0.2850   -1.9850 o         1 MOL     -0.743515
     68 H28        -4.4220    2.4910   -0.6670 hn        1 MOL      0.216741
     69 H29        -7.2840    1.8540   -1.0480 h1        1 MOL      0.144697
     70 H30        -5.3730    1.8440   -2.8940 hc        1 MOL      0.112151
     71 H31        -6.8450    0.7590   -2.9200 hc        1 MOL      0.112151
     72 H32        -6.3060   -1.2920   -3.6190 hn        1 MOL      0.369308
     73 H33        -4.8630   -2.1070   -3.0330 hn        1 MOL      0.369308
     74 N8         -5.6350   -0.0370    0.9090 n         1 MOL     -0.097348
     75 C23        -5.7320   -1.0860    1.8340 c3        1 MOL     -0.243023
     76 C24        -4.9420   -2.3370    1.6100 c         1 MOL      0.440664
     77 O12        -5.4840   -3.3880    1.9560 o         1 MOL     -0.512318
     78 H34        -4.8900    0.6380    0.9730 hn        1 MOL      0.106051
     79 H35        -6.7820   -1.3070    2.0260 h1        1 MOL      0.132528
     80 H36        -5.3380   -0.6910    2.7610 h1        1 MOL      0.132528
     81 N9         -3.8240   -2.2540    0.8390 n         1 MOL     -0.007357
     82 C25        -3.0590   -3.3890    0.2690 c3        1 MOL     -0.022570
     83 C26        -1.6680   -2.8370    0.0400 c         1 MOL      0.761501
     84 O13        -1.4470   -1.9270   -0.7520 o         1 MOL     -0.720725
     85 C27        -3.7130   -3.9040   -1.0800 c3        1 MOL     -0.023841
     86 C28        -4.8710   -4.8460   -0.7900 ca        1 MOL      0.009471
     87 C29        -4.6390   -6.2040   -0.4350 ca        1 MOL     -0.177923
     88 C30        -6.1950   -4.4130   -0.9880 ca        1 MOL     -0.177923
     89 C31        -5.7680   -7.0880   -0.2860 ca        1 MOL     -0.283746
     90 C32        -7.2810   -5.2200   -0.5990 ca        1 MOL     -0.283746
     91 C33        -7.0690   -6.5440   -0.2260 ca        1 MOL      0.437225
     92 O14        -8.1310   -7.3450    0.0110 oh        1 MOL     -0.536281
     93 H37        -3.5300   -1.3320    0.5490 hn        1 MOL      0.050233
     94 H38        -2.9960   -4.2370    0.9460 h1        1 MOL      0.041080
     95 H39        -2.9600   -4.4160   -1.6790 hc        1 MOL      0.013656
     96 H40        -4.0190   -3.0320   -1.6640 hc        1 MOL      0.013656
     97 H41        -3.6520   -6.5700   -0.2060 ha        1 MOL      0.151592
     98 H42        -6.3790   -3.3710   -1.2070 ha        1 MOL      0.151592
     99 H43        -5.5190   -8.1360   -0.1710 ha        1 MOL      0.153113
    100 H44        -8.2950   -4.8540   -0.6030 ha        1 MOL      0.153113
    101 H45        -8.9460   -6.8900   -0.2170 ho        1 MOL      0.378636
    102 N10        -0.6900   -3.5110    0.5940 n         1 MOL     -0.578537
    103 C34         0.6110   -3.0360    0.8550 c3        1 MOL      0.154016
    104 C35         1.5450   -4.0410    0.1950 c         1 MOL      0.497837
    105 O15         1.4250   -5.2130    0.4360 o         1 MOL     -0.541795
    106 C36         0.8860   -2.8410    2.3100 c3        1 MOL      0.109027
    107 C37         0.1120   -1.6140    2.8870 c3        1 MOL      0.195208
    108 C38         2.3700   -2.6430    2.6190 c3        1 MOL     -0.316792
    109 C39        -1.1080   -2.0750    3.6960 c3        1 MOL     -0.539335
    110 H46        -0.9340   -4.2430    1.2510 hn        1 MOL      0.296333
    111 H47         0.8640   -2.0740    0.4190 h1        1 MOL      0.047900
    112 H48         0.5220   -3.7450    2.7960 hc        1 MOL      0.012216
    113 H49        -0.3230   -1.0330    2.0700 hc        1 MOL      0.028004
    114 H50         0.7230   -0.9150    3.4530 hc        1 MOL      0.028004
    115 H51         2.8760   -2.0250    1.8830 hc        1 MOL      0.060086
    116 H52         2.4700   -1.9920    3.4940 hc        1 MOL      0.060086
    117 H53         2.9550   -3.5600    2.7110 hc        1 MOL      0.060086
    118 H54        -2.0370   -2.2630    3.1690 hc        1 MOL      0.112367
    119 H55        -0.8090   -2.8690    4.3680 hc        1 MOL      0.112367
    120 H56        -1.3820   -1.3560    4.4720 hc        1 MOL      0.112367
    121 N11         2.5130   -3.6270   -0.6340 n         1 MOL     -0.201304
    122 C40         3.6170   -4.4050   -1.1760 c3        1 MOL     -0.090427
    123 C41         5.0310   -3.7890   -0.6120 c         1 MOL      0.408128
    124 O16         4.9850   -2.7640    0.0810 o         1 MOL     -0.332138
    125 C42         3.5020   -4.4000   -2.6840 c3        1 MOL      0.154265
    126 O17         3.2480   -3.1460   -3.2770 oh        1 MOL     -0.558376
    127 H57         2.5250   -2.6760   -0.9840 hn        1 MOL      0.144859
    128 H58         3.6130   -5.4350   -0.8050 h1        1 MOL      0.096854
    129 H59         2.7300   -5.1270   -2.9640 h1        1 MOL      0.031502
    130 H60         4.3610   -4.8420   -3.1790 h1        1 MOL      0.031502
    131 H61         2.3090   -2.9230   -3.2230 ho        1 MOL      0.383438
    132 N12         6.1140   -4.5430   -0.7020 n         1 MOL     -0.327446
    133 C43         7.3560   -4.2750   -0.0710 c3        1 MOL      0.050541
    134 C44         7.8120   -2.8180   -0.2340 c         1 MOL      0.340157
    135 O18         8.3140   -2.2420    0.7860 o         1 MOL     -0.523929
    136 C45         8.5050   -5.1960   -0.6410 c3        1 MOL     -0.214113
    137 H62         6.1040   -5.4070   -1.2230 hn        1 MOL      0.247329
    138 H63         7.2260   -4.5220    0.9790 h1        1 MOL      0.102412
    139 H64         8.7040   -4.8270   -1.6520 hc        1 MOL      0.077379
    140 H65         9.4820   -5.2650   -0.1740 hc        1 MOL      0.077379
    141 H66         8.2110   -6.2420   -0.6350 hc        1 MOL      0.077379
    142 N13         7.6010   -2.1750   -1.3390 n         1 MOL     -0.133142
    143 C46         7.9850   -0.7650   -1.6360 c3        1 MOL     -0.037246
    144 C47         7.1060    0.2510   -0.9140 c         1 MOL      0.485190
    145 O19         7.5290    1.3520   -0.7350 o         1 MOL     -0.524903
    146 C48         8.1270   -0.5230   -3.1670 c3        1 MOL     -0.254661
    147 H67         7.2600   -2.6850   -2.1460 hn        1 MOL      0.215267
    148 H68         8.9700   -0.6490   -1.1980 h1        1 MOL      0.115019
    149 H69         8.6020    0.4420   -3.3190 hc        1 MOL      0.079736
    150 H70         8.6900   -1.3390   -3.6300 hc        1 MOL      0.079736
    151 H71         7.1740   -0.4860   -3.7070 hc        1 MOL      0.079736
    152 N14         5.9310   -0.1610   -0.5100 n         1 MOL     -0.285635
    153 C49         5.0990    0.6850    0.3980 c3        1 MOL      0.021164
    154 C50         5.5000    0.5350    1.8400 c         1 MOL      0.399658
    155 O20         5.6910    1.5320    2.5820 o         1 MOL     -0.528630
    156 C51         3.6400    0.2850    0.2750 c3        1 MOL      0.110458
    157 C52         3.1340    0.8080   -1.0790 c3        1 MOL     -0.051109
    158 C53         1.5830    0.6070   -1.1310 c         1 MOL      0.651842
    159 O21         0.8700    1.1180   -0.2610 o         1 MOL     -0.739990
    160 O22         1.0290    0.0680   -2.1240 o         1 MOL     -0.739990
    161 H72         5.6900   -1.1350   -0.5740 hn        1 MOL      0.107730
    162 H73         5.1520    1.7470    0.1760 h1        1 MOL      0.067911
    163 H74         3.0670    0.6290    1.1380 hc        1 MOL     -0.015977
    164 H75         3.5380   -0.7850    0.1230 hc        1 MOL     -0.015977
    165 H76         3.6380    0.2240   -1.8490 hc        1 MOL     -0.008452
    166 H77         3.4100    1.8210   -1.3510 hc        1 MOL     -0.008452
    167 N15         5.8490   -0.7070    2.1730 n         1 MOL     -0.020784
    168 C54         6.4200   -1.0070    3.4520 c3        1 MOL     -0.242637
    169 H78         7.0920   -0.2010    3.7470 h1        1 MOL      0.094602
    170 H79         5.6250   -1.1050    4.1920 h1        1 MOL      0.094602
    171 H80         6.9780   -1.9410    3.3920 h1        1 MOL      0.094602
    172 H81         5.5970   -1.4540    1.5470 hn        1 MOL      0.120797
    173 Ca1        -1.4590    0.6300   -1.5170 Ca        1 MOL      1.720007
    174 O23        -1.7020   -0.7210   -3.8080 oh        1 MOL     -0.743644
    175 H82        -2.0570   -1.5290   -3.4340 ho        1 MOL      0.389498
    176 H83        -1.2620   -0.9970   -4.6030 ho        1 MOL      0.389498
@<TRIPOS>BOND
     1    1    2 1   
     2    1    4 1   
     3    1    5 1   
     4    1    6 1   
     5    2    3 2   
     6    2    7 1   
     7    7    8 1   
     8    7   15 1   
     9    8    9 1   
    10    8   11 1   
    11    8   16 1   
    12    9   10 2   
    13    9   19 1   
    14   11   12 1   
    15   11   17 1   
    16   11   18 1   
    17   12   13 1   
    18   12   14 1   
    19   19   20 1   
    20   19   28 1   
    21   20   21 1   
    22   20   23 1   
    23   20   29 1   
    24   21   22 2   
    25   21   41 1   
    26   23   24 1   
    27   23   30 1   
    28   23   31 1   
    29   24   25 1   
    30   24   32 1   
    31   24   33 1   
    32   25   26 1   
    33   25   34 1   
    34   25   35 1   
    35   26   27 1   
    36   26   36 1   
    37   26   37 1   
    38   27   38 1   
    39   27   39 1   
    40   27   40 1   
    41   41   42 1   
    42   41   49 1   
    43   42   43 1   
    44   42   45 1   
    45   42   50 1   
    46   43   44 2   
    47   43   53 1   
    48   45   46 1   
    49   45   51 1   
    50   45   52 1   
    51   46   47 1   
    52   46   48 1   
    53   53   54 1   
    54   53   57 1   
    55   54   55 1   
    56   54   58 1   
    57   54   59 1   
    58   55   56 2   
    59   55   60 1   
    60   60   61 1   
    61   60   68 1   
    62   61   62 1   
    63   61   64 1   
    64   61   69 1   
    65   62   63 2   
    66   62   74 1   
    67   64   65 1   
    68   64   70 1   
    69   64   71 1   
    70   65   66 1   
    71   65   67 2   
    72   66   72 1   
    73   66   73 1   
    74   74   75 1   
    75   74   78 1   
    76   75   76 1   
    77   75   79 1   
    78   75   80 1   
    79   76   77 2   
    80   76   81 1   
    81   81   82 1   
    82   81   93 1   
    83   82   83 1   
    84   82   85 1   
    85   82   94 1   
    86   83   84 2   
    87   83  102 1   
    88   85   86 1   
    89   85   95 1   
    90   85   96 1   
    91   86   87 ar  
    92   86   88 ar  
    93   87   89 ar  
    94   87   97 1   
    95   88   90 ar  
    96   88   98 1   
    97   89   91 ar  
    98   89   99 1   
    99   90   91 ar  
   100   90  100 1   
   101   91   92 1   
   102   92  101 1   
   103  102  103 1   
   104  102  110 1   
   105  103  104 1   
   106  103  106 1   
   107  103  111 1   
   108  104  105 2   
   109  104  121 1   
   110  106  107 1   
   111  106  108 1   
   112  106  112 1   
   113  107  109 1   
   114  107  113 1   
   115  107  114 1   
   116  108  115 1   
   117  108  116 1   
   118  108  117 1   
   119  109  118 1   
   120  109  119 1   
   121  109  120 1   
   122  121  122 1   
   123  121  127 1   
   124  122  123 1   
   125  122  125 1   
   126  122  128 1   
   127  123  124 2   
   128  123  132 1   
   129  125  126 1   
   130  125  129 1   
   131  125  130 1   
   132  126  131 1   
   133  132  133 1   
   134  132  137 1   
   135  133  134 1   
   136  133  136 1   
   137  133  138 1   
   138  134  135 2   
   139  134  142 1   
   140  136  139 1   
   141  136  140 1   
   142  136  141 1   
   143  142  143 1   
   144  142  147 1   
   145  143  144 1   
   146  143  146 1   
   147  143  148 1   
   148  144  145 2   
   149  144  152 1   
   150  146  149 1   
   151  146  150 1   
   152  146  151 1   
   153  152  153 1   
   154  152  161 1   
   155  153  154 1   
   156  153  156 1   
   157  153  162 1   
   158  154  155 2   
   159  154  167 1   
   160  156  157 1   
   161  156  163 1   
   162  156  164 1   
   163  157  158 1   
   164  157  165 1   
   165  157  166 1   
   166  158  159 1   
   167  158  160 1   
   168  167  168 1   
   169  167  172 1   
   170  168  169 1   
   171  168  170 1   
   172  168  171 1   
   173  174  175 1   
   174  174  176 1   
@<TRIPOS>SUBSTRUCTURE
     1 MOL         1 TEMP              0 ****  ****    0 ROOT
