@<TRIPOS>MOLECULE
MOL
  175   173     1     0     0
SMALL
resp


@<TRIPOS>ATOM
      1 C1          0.5740    3.8870    5.6420 c3        1 MOL     -0.423695
      2 C2         -0.0480    3.7950    4.2280 c         1 MOL      0.702530
      3 O1          0.6670    3.8890    3.1870 o         1 MOL     -0.543916
      4 H1          0.6430    2.8890    6.0730 hc        1 MOL      0.107741
      5 H2          1.5710    4.3240    5.5730 hc        1 MOL      0.107741
      6 H3         -0.0540    4.5140    6.2750 hc        1 MOL      0.107741
      7 N1         -1.3940    3.6850    4.1280 n         1 MOL     -0.683156
      8 C3         -2.0620    3.3650    2.8860 c3        1 MOL      0.208042
      9 C4         -1.9690    4.5880    1.9610 c         1 MOL      0.649825
     10 O2         -1.9490    5.7450    2.4520 o         1 MOL     -0.587944
     11 C5         -3.4890    2.9460    3.2220 c3        1 MOL     -0.394620
     12 C6         -4.1740    2.4540    1.9160 c         1 MOL      0.842759
     13 O3         -3.4880    1.9780    0.9780 o         1 MOL     -0.701969
     14 O4         -5.3870    2.2610    1.8480 o         1 MOL     -0.701969
     15 H4         -1.9500    3.7440    4.9710 hn        1 MOL      0.340119
     16 H5         -1.6540    2.4580    2.4500 h1        1 MOL      0.108338
     17 H6         -4.0420    3.8470    3.4830 hc        1 MOL      0.083292
     18 H7         -3.5160    2.1570    3.9650 hc        1 MOL      0.083292
     19 N2         -2.0460    4.3410    0.6570 n         1 MOL     -0.660417
     20 C7         -2.0670    5.4760   -0.4020 c3        1 MOL      0.282100
     21 C8         -3.0370    5.1320   -1.5950 c         1 MOL      0.448041
     22 O5         -3.1330    5.9630   -2.5130 o         1 MOL     -0.560520
     23 C9         -0.5330    5.6080   -0.7800 c3        1 MOL     -0.387565
     24 H8         -1.8620    3.3810    0.4000 hn        1 MOL      0.412013
     25 H9         -2.4830    6.3660    0.0800 h1        1 MOL      0.026778
     26 H10        -0.3650    6.5640   -1.2840 hc        1 MOL      0.106137
     27 H11         0.0840    5.5840    0.1180 hc        1 MOL      0.106137
     28 H12        -0.3270    4.7910   -1.4570 hc        1 MOL      0.106137
     29 N3         -3.7110    3.9680   -1.6010 n         1 MOL     -0.281744
     30 C10        -4.4740    3.4460   -2.6770 c3        1 MOL      0.034743
     31 C11        -5.7900    2.7640   -2.3420 c         1 MOL      0.385073
     32 O6         -6.6290    2.6430   -3.2160 o         1 MOL     -0.550305
     33 C12        -3.5890    2.5970   -3.6210 c3        1 MOL     -0.122361
     34 C13        -2.9720    1.3550   -2.9610 c         1 MOL      0.753462
     35 O7         -3.4790    0.7570   -2.0200 o         1 MOL     -0.731715
     36 O8         -2.0010    0.8550   -3.5280 o         1 MOL     -0.731715
     37 H13        -3.6070    3.3550   -0.8080 hn        1 MOL      0.107784
     38 H14        -4.6520    4.3710   -3.2400 h1        1 MOL      0.069336
     39 H15        -2.7400    3.1250   -4.0540 hc        1 MOL      0.036613
     40 H16        -4.2230    2.2550   -4.4410 hc        1 MOL      0.036613
     41 N4         -5.9810    2.2930   -1.1190 n         1 MOL     -0.093024
     42 C14        -7.2300    1.5650   -0.7050 c3        1 MOL     -0.439521
     43 C15        -7.3510    0.0690   -0.9610 c         1 MOL      0.643292
     44 O9         -8.3730   -0.4970   -0.5950 o         1 MOL     -0.635304
     45 H17        -5.2700    2.3960   -0.3990 hn        1 MOL      0.133750
     46 H18        -8.0910    1.9410   -1.2600 h1        1 MOL      0.162746
     47 H19        -7.3990    1.6060    0.3770 h1        1 MOL      0.162746
     48 N5         -6.3410   -0.4770   -1.5250 n         1 MOL     -0.318521
     49 C16        -6.4040   -1.7890   -2.1690 c3        1 MOL     -0.004879
     50 C17        -6.5040   -3.0230   -1.2650 c         1 MOL      0.474540
     51 O10        -6.8360   -4.0570   -1.7950 o         1 MOL     -0.546234
     52 C18        -5.1850   -1.8460   -3.1640 c3        1 MOL     -0.198010
     53 C19        -3.8240   -2.1070   -2.4820 c         1 MOL      0.488531
     54 N6         -2.8000   -2.1980   -3.3440 n         1 MOL     -0.722216
     55 O11        -3.6780   -2.1920   -1.2420 o         1 MOL     -0.185877
     56 H20        -5.5230    0.0930   -1.6870 hn        1 MOL      0.317183
     57 H21        -7.3110   -1.7770   -2.7690 h1        1 MOL      0.078199
     58 H22        -5.0930   -0.9540   -3.7820 hc        1 MOL      0.061910
     59 H23        -5.3220   -2.7220   -3.7980 hc        1 MOL      0.061910
     60 H24        -2.9730   -1.9060   -4.2910 hn        1 MOL      0.365358
     61 H25        -1.8410   -2.2620   -3.0170 hn        1 MOL      0.365358
     62 N7         -6.1440   -2.8890    0.0200 n         1 MOL     -0.201548
     63 C20        -6.1300   -3.8820    1.0960 c3        1 MOL     -0.046732
     64 C21        -4.7490   -4.5060    1.4940 c         1 MOL      0.497569
     65 O12        -4.7530   -5.4710    2.2380 o         1 MOL     -0.603436
     66 H26        -5.9230   -1.9240    0.2120 hn        1 MOL      0.122737
     67 H27        -6.9360   -4.6030    0.9500 h1        1 MOL      0.062743
     68 H28        -6.4240   -3.4250    2.0450 h1        1 MOL      0.062743
     69 N8         -3.6250   -3.9710    1.0560 n         1 MOL     -0.053183
     70 C22        -2.2750   -4.5000    1.3530 c3        1 MOL     -0.169416
     71 C23        -1.2820   -3.3840    1.6370 c         1 MOL      0.411727
     72 O13        -1.4570   -2.2780    1.1640 o         1 MOL     -0.504685
     73 C24        -1.7160   -5.3500    0.1690 c3        1 MOL      0.654064
     74 C25        -2.2970   -6.7100   -0.0260 c3        1 MOL     -0.357826
     75 O14        -1.8840   -4.6210   -1.0280 oh        1 MOL     -0.688520
     76 H29        -3.6780   -3.2560    0.3480 hn        1 MOL     -0.095818
     77 H30        -2.2690   -5.2420    2.1550 h1        1 MOL      0.068509
     78 H31        -0.6400   -5.4630    0.3190 h1        1 MOL     -0.090057
     79 H32        -1.2830   -3.8780   -1.0510 ho        1 MOL      0.411788
     80 H33        -1.9920   -7.2150   -0.9320 hc        1 MOL      0.077621
     81 H34        -2.0420   -7.3410    0.8310 hc        1 MOL      0.077621
     82 H35        -3.3710   -6.5080    0.0240 hc        1 MOL      0.077621
     83 N9         -0.2180   -3.5990    2.3530 n         1 MOL     -0.413007
     84 C26         0.9920   -2.7390    2.3490 c3        1 MOL      0.016183
     85 C27         1.7090   -3.1800    1.0330 c         1 MOL      0.393008
     86 O15         1.9050   -4.3820    0.7690 o         1 MOL     -0.556450
     87 C28         1.8250   -2.9090    3.6370 c3        1 MOL      0.150559
     88 C29         0.9710   -2.6880    4.9340 c3        1 MOL     -0.037674
     89 C30         2.9850   -1.8910    3.5440 c3        1 MOL     -0.009746
     90 C31         1.7610   -2.5250    6.3270 c3        1 MOL     -0.269373
     91 H36        -0.1420   -4.5310    2.7260 hn        1 MOL      0.282821
     92 H37         0.7750   -1.6750    2.3200 h1        1 MOL      0.052712
     93 H38         2.2290   -3.9180    3.6510 hc        1 MOL     -0.016731
     94 H39         0.2680   -3.5190    4.8810 hc        1 MOL      0.011425
     95 H40         0.3940   -1.7860    4.7730 hc        1 MOL      0.011425
     96 H41         2.7440   -0.8340    3.4110 hc        1 MOL     -0.013582
     97 H42         3.5780   -2.0000    4.4440 hc        1 MOL     -0.013582
     98 H43         3.5770   -2.1780    2.6720 hc        1 MOL     -0.013582
     99 H44         2.5670   -3.2240    6.5620 hc        1 MOL      0.076302
    100 H45         1.9780   -1.4630    6.4360 hc        1 MOL      0.076302
    101 H46         1.0330   -2.6230    7.1240 hc        1 MOL      0.076302
    102 N10         2.0080   -2.1490    0.2290 n         1 MOL     -0.054535
    103 C32         2.5830   -2.2550   -1.1290 c3        1 MOL      0.017010
    104 C33         3.9810   -1.6420   -1.0390 c         1 MOL      0.332785
    105 O16         4.1990   -0.9260   -0.1200 o         1 MOL     -0.321972
    106 C34         1.7250   -1.4670   -2.1060 c3        1 MOL     -0.332320
    107 C35         0.2990   -1.9880   -2.2510 c         1 MOL      0.873665
    108 O17        -0.5400   -1.5300   -1.5080 o         1 MOL     -0.735529
    109 O18         0.0390   -2.8910   -3.0810 o         1 MOL     -0.735529
    110 H47         1.8000   -1.2140    0.5630 hn        1 MOL      0.108579
    111 H48         2.6600   -3.2740   -1.4920 h1        1 MOL      0.085913
    112 H49         2.1970   -1.3450   -3.0780 hc        1 MOL      0.094794
    113 H50         1.7440   -0.4100   -1.8330 hc        1 MOL      0.094794
    114 N11         4.9510   -1.9100   -1.9260 n         1 MOL     -0.564581
    115 C36         6.3260   -1.3900   -1.6470 c3        1 MOL      0.378660
    116 C37         6.4520    0.1350   -1.4200 c         1 MOL      0.335487
    117 O19         7.2120    0.5220   -0.4890 o         1 MOL     -0.455628
    118 C38         7.3900   -1.9090   -2.6140 c3        1 MOL     -0.300184
    119 C39         8.8000   -1.6070   -2.0960 ca        1 MOL      0.036577
    120 C40         9.4710   -2.4510   -1.2360 ca        1 MOL     -0.136326
    121 C41         9.3990   -0.3860   -2.5700 ca        1 MOL     -0.136326
    122 C42        10.7680   -2.1850   -0.7850 ca        1 MOL     -0.114246
    123 C43        10.6970   -0.1050   -2.1210 ca        1 MOL     -0.114246
    124 C44        11.3810   -0.9770   -1.2170 ca        1 MOL     -0.089317
    125 H51         4.7870   -2.5950   -2.6600 hn        1 MOL      0.321449
    126 H52         6.6620   -1.9280   -0.7640 h1        1 MOL      0.045809
    127 H53         7.2320   -1.3330   -3.5240 hc        1 MOL      0.092032
    128 H54         7.2310   -2.9730   -2.7730 hc        1 MOL      0.092032
    129 H55         9.0180   -3.3830   -0.9120 ha        1 MOL      0.119099
    130 H56         8.9000    0.2350   -3.2990 ha        1 MOL      0.119099
    131 H57        11.2500   -2.9330   -0.1750 ha        1 MOL      0.107648
    132 H58        11.2850    0.6950   -2.5630 ha        1 MOL      0.107648
    133 H59        12.4320   -0.8640   -0.9780 ha        1 MOL      0.087425
    134 N12         5.8170    1.0680   -2.2290 n         1 MOL     -0.059707
    135 C45         5.7520    2.5060   -1.9720 c3        1 MOL     -0.161899
    136 C46         5.3080    2.8570   -0.5420 c         1 MOL      0.331459
    137 O20         5.6940    3.8960   -0.0350 o         1 MOL     -0.500886
    138 C47         4.7210    3.0390   -3.0080 c3        1 MOL      0.111979
    139 C48         4.9380    2.1270   -4.1620 c3        1 MOL     -0.034430
    140 C49         4.9330    0.8170   -3.3720 c3        1 MOL     -0.002064
    141 H60         6.6720    3.0360   -2.2120 h1        1 MOL      0.105352
    142 H61         3.7070    2.9220   -2.6460 hc        1 MOL      0.010661
    143 H62         4.8360    4.0660   -3.3470 hc        1 MOL      0.010661
    144 H63         4.0980    2.1920   -4.8600 hc        1 MOL      0.025945
    145 H64         5.8690    2.3470   -4.6780 hc        1 MOL      0.025945
    146 H65         3.9520    0.4920   -3.0140 h1        1 MOL      0.012130
    147 H66         5.3690    0.0490   -4.0130 h1        1 MOL      0.012130
    148 N13         4.5670    1.9700    0.1400 n         1 MOL     -0.094931
    149 C50         4.0590    2.1610    1.4800 c3        1 MOL     -0.102329
    150 C51         4.9260    1.5520    2.5110 c         1 MOL      0.473695
    151 O21         5.0190    2.0670    3.5920 o         1 MOL     -0.566410
    152 C52         2.6620    1.5000    1.5630 c3        1 MOL      0.011257
    153 C53         1.7380    2.1090    0.5100 c3        1 MOL     -0.339656
    154 C54         0.3890    1.3630    0.5250 c         1 MOL      0.573749
    155 O22        -0.5760    1.8220   -0.1760 o         1 MOL     -0.714350
    156 O23         0.1840    0.2660    1.1010 o         1 MOL     -0.714350
    157 H67         4.2280    1.1630   -0.3570 hn        1 MOL      0.121302
    158 H68         3.9870    3.2260    1.6930 h1        1 MOL      0.116582
    159 H69         2.2200    1.6700    2.5440 hc        1 MOL      0.087635
    160 H70         2.7180    0.4380    1.3260 hc        1 MOL      0.087635
    161 H71         2.1500    1.6870   -0.4080 hc        1 MOL      0.151119
    162 H72         1.6180    3.1880    0.5800 hc        1 MOL      0.151119
    163 N14         5.5870    0.4230    2.2100 n         1 MOL     -0.121899
    164 C55         6.4410   -0.3050    3.1640 c3        1 MOL     -0.054736
    165 H73         5.9140   -1.1890    3.5210 h1        1 MOL      0.036365
    166 H74         7.3640   -0.6070    2.6690 h1        1 MOL      0.036365
    167 H75         6.6770    0.3430    4.0090 h1        1 MOL      0.036365
    168 H76         5.4910   -0.0100    1.3000 hn        1 MOL      0.069084
    169 Ca1        -2.1800   -0.1490   -0.0100 Ca        1 MOL      1.688558
    170 O24        -1.9980   -0.0990    2.6350 oh        1 MOL     -0.855405
    171 H77        -2.0970    0.2220    3.5350 ho        1 MOL      0.413513
    172 H78        -1.1670   -0.5750    2.6440 ho        1 MOL      0.413513
    173 O25        -4.8480   -0.3230    1.0540 oh        1 MOL     -0.855405
    174 H79        -4.8830    0.6210    1.1980 ho        1 MOL      0.413513
    175 H80        -5.5460   -0.6770    1.6010 ho        1 MOL      0.413513
@<TRIPOS>BOND
     1    1    2 1   
     2    1    4 1   
     3    1    5 1   
     4    1    6 1   
     5    2    3 2   
     6    2    7 1   
     7    7    8 1   
     8    7   15 1   
     9    8    9 1   
    10    8   11 1   
    11    8   16 1   
    12    9   10 2   
    13    9   19 1   
    14   11   12 1   
    15   11   17 1   
    16   11   18 1   
    17   12   13 1   
    18   12   14 1   
    19   19   20 1   
    20   19   24 1   
    21   20   21 1   
    22   20   23 1   
    23   20   25 1   
    24   21   22 2   
    25   21   29 1   
    26   23   26 1   
    27   23   27 1   
    28   23   28 1   
    29   29   30 1   
    30   29   37 1   
    31   30   31 1   
    32   30   33 1   
    33   30   38 1   
    34   31   32 2   
    35   31   41 1   
    36   33   34 1   
    37   33   39 1   
    38   33   40 1   
    39   34   35 1   
    40   34   36 1   
    41   41   42 1   
    42   41   45 1   
    43   42   43 1   
    44   42   46 1   
    45   42   47 1   
    46   43   44 2   
    47   43   48 1   
    48   48   49 1   
    49   48   56 1   
    50   49   50 1   
    51   49   52 1   
    52   49   57 1   
    53   50   51 2   
    54   50   62 1   
    55   52   53 1   
    56   52   58 1   
    57   52   59 1   
    58   53   54 1   
    59   53   55 2   
    60   54   60 1   
    61   54   61 1   
    62   62   63 1   
    63   62   66 1   
    64   63   64 1   
    65   63   67 1   
    66   63   68 1   
    67   64   65 2   
    68   64   69 1   
    69   69   70 1   
    70   69   76 1   
    71   70   71 1   
    72   70   73 1   
    73   70   77 1   
    74   71   72 2   
    75   71   83 1   
    76   73   74 1   
    77   73   75 1   
    78   73   78 1   
    79   74   80 1   
    80   74   81 1   
    81   74   82 1   
    82   75   79 1   
    83   83   84 1   
    84   83   91 1   
    85   84   85 1   
    86   84   87 1   
    87   84   92 1   
    88   85   86 2   
    89   85  102 1   
    90   87   88 1   
    91   87   89 1   
    92   87   93 1   
    93   88   90 1   
    94   88   94 1   
    95   88   95 1   
    96   89   96 1   
    97   89   97 1   
    98   89   98 1   
    99   90   99 1   
   100   90  100 1   
   101   90  101 1   
   102  102  103 1   
   103  102  110 1   
   104  103  104 1   
   105  103  106 1   
   106  103  111 1   
   107  104  105 2   
   108  104  114 1   
   109  106  107 1   
   110  106  112 1   
   111  106  113 1   
   112  107  108 1   
   113  107  109 1   
   114  114  115 1   
   115  114  125 1   
   116  115  116 1   
   117  115  118 1   
   118  115  126 1   
   119  116  117 2   
   120  116  134 1   
   121  118  119 1   
   122  118  127 1   
   123  118  128 1   
   124  119  120 ar  
   125  119  121 ar  
   126  120  122 ar  
   127  120  129 1   
   128  121  123 ar  
   129  121  130 1   
   130  122  124 ar  
   131  122  131 1   
   132  123  124 ar  
   133  123  132 1   
   134  124  133 1   
   135  134  135 1   
   136  134  140 1   
   137  135  136 1   
   138  135  138 1   
   139  135  141 1   
   140  136  137 2   
   141  136  148 1   
   142  138  139 1   
   143  138  142 1   
   144  138  143 1   
   145  139  140 1   
   146  139  144 1   
   147  139  145 1   
   148  140  146 1   
   149  140  147 1   
   150  148  149 1   
   151  148  157 1   
   152  149  150 1   
   153  149  152 1   
   154  149  158 1   
   155  150  151 2   
   156  150  163 1   
   157  152  153 1   
   158  152  159 1   
   159  152  160 1   
   160  153  154 1   
   161  153  161 1   
   162  153  162 1   
   163  154  155 1   
   164  154  156 1   
   165  163  164 1   
   166  163  168 1   
   167  164  165 1   
   168  164  166 1   
   169  164  167 1   
   170  170  171 1   
   171  170  172 1   
   172  173  174 1   
   173  173  175 1   
@<TRIPOS>SUBSTRUCTURE
     1 MOL         1 TEMP              0 ****  ****    0 ROOT
