@<TRIPOS>MOLECULE
MOL
  183   181     1     0     0
SMALL
resp


@<TRIPOS>ATOM
      1 C1         -0.6720    3.0500    5.8240 c3        1 MOL     -0.292972
      2 C2         -1.0620    2.6290    4.4210 c         1 MOL      0.772168
      3 O1         -0.2540    2.7360    3.5210 o         1 MOL     -0.615328
      4 H1         -1.3250    3.8570    6.1560 hc        1 MOL      0.062865
      5 H2         -0.7730    2.2000    6.5000 hc        1 MOL      0.062865
      6 H3          0.3610    3.3950    5.8260 hc        1 MOL      0.062865
      7 N1         -2.2530    2.1150    4.1470 n         1 MOL     -0.680736
      8 C3         -2.7020    1.8110    2.8070 c3        1 MOL      0.284765
      9 C4         -3.2470    3.0870    2.0690 c         1 MOL      0.507437
     10 O2         -4.3320    3.5690    2.4050 o         1 MOL     -0.559028
     11 C5         -3.7480    0.6250    2.9690 c3        1 MOL     -0.490945
     12 C6         -4.4340    0.2220    1.6600 c         1 MOL      0.979414
     13 O3         -5.2630   -0.6980    1.6410 o         1 MOL     -0.770748
     14 O4         -3.9870    0.7790    0.6090 o         1 MOL     -0.770748
     15 H4         -2.8240    1.9720    4.9740 hn        1 MOL      0.323687
     16 H5         -1.9090    1.3540    2.2180 h1        1 MOL      0.034016
     17 H6         -4.5430    0.8710    3.6630 hc        1 MOL      0.101678
     18 H7         -3.1970   -0.2020    3.4130 hc        1 MOL      0.101678
     19 N2         -2.5740    3.5480    1.0430 n         1 MOL     -0.274066
     20 C7         -2.8790    4.8020    0.4470 c3        1 MOL     -0.314836
     21 C8         -4.0830    4.7140   -0.4300 c         1 MOL      0.661788
     22 O5         -4.9810    5.5320   -0.4040 o         1 MOL     -0.621081
     23 C9         -1.6940    5.4480   -0.3650 c3        1 MOL      0.271725
     24 C10        -0.3570    5.3360    0.3780 c3        1 MOL     -0.016882
     25 C11        -2.0420    6.8880   -0.6400 c3        1 MOL     -0.244988
     26 C12         0.8000    5.5820   -0.6100 c3        1 MOL     -0.127701
     27 H8         -1.8090    3.0290    0.6230 hn        1 MOL      0.227853
     28 H9         -3.1360    5.4730    1.2700 h1        1 MOL      0.120582
     29 H10        -1.6480    4.8440   -1.2810 hc        1 MOL     -0.006161
     30 H11        -0.1670    4.3470    0.7920 hc        1 MOL      0.021792
     31 H12        -0.2940    6.0240    1.2230 hc        1 MOL      0.021792
     32 H13        -1.1750    7.3730   -1.0940 hc        1 MOL      0.040427
     33 H14        -2.7940    6.8070   -1.4230 hc        1 MOL      0.040427
     34 H15        -2.3830    7.4420    0.2280 hc        1 MOL      0.040427
     35 H16         0.7940    5.0150   -1.5350 hc        1 MOL      0.022424
     36 H17         0.8210    6.6500   -0.8280 hc        1 MOL      0.022424
     37 H18         1.7550    5.4740   -0.1050 hc        1 MOL      0.022424
     38 N3         -4.2200    3.6040   -1.1050 n         1 MOL     -0.382927
     39 C13        -5.2960    3.4310   -2.1280 c3        1 MOL      0.173891
     40 C14        -6.5060    2.7480   -1.5950 c         1 MOL      0.402131
     41 O6         -7.5470    2.9510   -2.2330 o         1 MOL     -0.577285
     42 C15        -4.7060    2.8830   -3.4370 c3        1 MOL     -0.226913
     43 C16        -3.9200    1.5430   -3.3260 c         1 MOL      0.741515
     44 O7         -3.2640    1.1360   -4.3450 o         1 MOL     -0.698944
     45 O8         -3.9260    0.8460   -2.2210 o         1 MOL     -0.698944
     46 H19        -3.5970    2.8410   -0.8880 hn        1 MOL      0.212763
     47 H20        -5.6090    4.4090   -2.4850 h1        1 MOL      0.059066
     48 H21        -4.0680    3.7230   -3.7090 hc        1 MOL      0.052095
     49 H22        -5.4040    2.8470   -4.2740 hc        1 MOL      0.052095
     50 N4         -6.3930    1.9540   -0.4560 n         1 MOL     -0.131960
     51 C17        -7.5420    1.3150    0.2730 c3        1 MOL     -0.359946
     52 C18        -7.8090   -0.0980   -0.1930 c         1 MOL      0.678650
     53 O9         -8.8630   -0.6410    0.0850 o         1 MOL     -0.652686
     54 H23        -5.4460    1.7930   -0.1200 hn        1 MOL      0.169614
     55 H24        -8.3920    1.9890    0.1530 h1        1 MOL      0.141776
     56 H25        -7.2500    1.2870    1.3220 h1        1 MOL      0.141776
     57 N5         -6.9220   -0.6840   -0.9910 n         1 MOL     -0.336528
     58 C19        -7.2210   -1.9800   -1.6840 c3        1 MOL      0.040592
     59 C20        -7.0750   -3.2690   -0.7880 c         1 MOL      0.351376
     60 O10        -7.2940   -4.4020   -1.2580 o         1 MOL     -0.578894
     61 C21        -6.1720   -2.0880   -2.8690 c3        1 MOL     -0.241619
     62 C22        -4.7620   -2.2050   -2.3550 c         1 MOL      0.847004
     63 O11        -3.8170   -2.4320   -3.1940 o         1 MOL     -0.767627
     64 O12        -4.3960   -2.0850   -1.1140 o         1 MOL     -0.767627
     65 H26        -5.9760   -0.3290   -0.9970 hn        1 MOL      0.194046
     66 H27        -8.2140   -1.9480   -2.1220 h1        1 MOL      0.080628
     67 H28        -6.2930   -1.2170   -3.5050 hc        1 MOL      0.064080
     68 H29        -6.3860   -2.9880   -3.4480 hc        1 MOL      0.064080
     69 N6         -6.6560   -2.9930    0.4010 n         1 MOL     -0.048209
     70 C23        -6.8070   -3.9260    1.5590 c3        1 MOL     -0.022838
     71 C24        -5.4690   -4.1970    2.2200 c         1 MOL      0.458573
     72 O13        -5.3120   -5.1590    2.9960 o         1 MOL     -0.589490
     73 H30        -6.2980   -2.0700    0.5630 hn        1 MOL      0.219964
     74 H31        -7.3030   -4.8280    1.1940 h1        1 MOL      0.049880
     75 H32        -7.6390   -3.5360    2.1580 h1        1 MOL      0.049880
     76 N7         -4.3730   -3.5120    1.7880 n         1 MOL     -0.133267
     77 C25        -2.9650   -3.9240    2.0600 c3        1 MOL     -0.129243
     78 C26        -1.9480   -2.8010    1.9490 c         1 MOL      0.725141
     79 O14        -2.1900   -1.7950    1.3450 o         1 MOL     -0.726784
     80 C27        -2.5610   -5.1730    1.1790 c3        1 MOL      0.072412
     81 C28        -2.7050   -5.0420   -0.3950 c3        1 MOL     -0.264403
     82 C29        -1.4680   -4.3280   -0.9750 c         1 MOL      0.539176
     83 N8         -0.3780   -5.0030   -1.2580 n         1 MOL     -0.604886
     84 O15        -1.4730   -3.0680   -1.0840 o         1 MOL     -0.558298
     85 H33        -4.5210   -2.8380    1.0350 hn        1 MOL      0.112797
     86 H34        -2.9140   -4.2860    3.0850 h1        1 MOL      0.051224
     87 H35        -3.1670   -6.0440    1.4150 hc        1 MOL     -0.000226
     88 H36        -1.5420   -5.5190    1.3860 hc        1 MOL     -0.000226
     89 H37        -3.6540   -4.5770   -0.6650 hc        1 MOL      0.104680
     90 H38        -2.7380   -6.0970   -0.6840 hc        1 MOL      0.104680
     91 H39        -0.4870   -5.9950   -1.3530 hn        1 MOL      0.302713
     92 H40         0.3710   -4.5710   -1.7680 hn        1 MOL      0.302713
     93 N9         -0.7860   -3.0150    2.5360 n         1 MOL     -0.408090
     94 C30         0.4010   -2.1140    2.3900 c3        1 MOL      0.070081
     95 C31         1.5220   -2.7070    1.5230 c         1 MOL      0.346905
     96 O16         2.0490   -3.7040    1.8680 o         1 MOL     -0.553793
     97 C32         0.9060   -1.5200    3.7330 c3        1 MOL      0.184306
     98 C33         1.8390   -0.2360    3.5280 c3        1 MOL     -0.250726
     99 C34        -0.2440   -1.0500    4.6500 c3        1 MOL     -0.250726
    100 H41        -0.5960   -3.8920    3.0100 hn        1 MOL      0.254047
    101 H42         0.0790   -1.2270    1.8440 h1        1 MOL      0.168246
    102 H43         1.5200   -2.2460    4.2700 hc        1 MOL     -0.029223
    103 H44         2.6890   -0.4330    2.8780 hc        1 MOL      0.050050
    104 H45         1.2790    0.5820    3.0780 hc        1 MOL      0.050050
    105 H46         2.3010   -0.0420    4.5000 hc        1 MOL      0.050050
    106 H47        -0.7480   -0.1500    4.2840 hc        1 MOL      0.050050
    107 H48        -1.0600   -1.7720    4.7290 hc        1 MOL      0.050050
    108 H49         0.1660   -0.9060    5.6510 hc        1 MOL      0.050050
    109 N10         1.9170   -2.1200    0.3790 n         1 MOL      0.001629
    110 C35         3.1940   -2.4690   -0.2750 c3        1 MOL      0.068363
    111 C36         4.4240   -1.7810    0.3760 c         1 MOL      0.343065
    112 O17         4.2860   -0.6820    0.8460 o         1 MOL     -0.201430
    113 C37         3.1210   -2.0970   -1.7900 c3        1 MOL     -0.354306
    114 C38         2.0440   -2.9940   -2.4470 c         1 MOL      0.751709
    115 N11         0.9610   -2.4780   -2.9690 n         1 MOL     -0.829798
    116 O18         2.2150   -4.1860   -2.6510 o         1 MOL     -0.618004
    117 H50         1.4540   -1.2780    0.0820 hn        1 MOL     -0.033503
    118 H51         3.3360   -3.5540   -0.2840 h1        1 MOL      0.032260
    119 H52         4.0480   -2.4070   -2.2710 hc        1 MOL      0.106985
    120 H53         2.8160   -1.0650   -1.9790 hc        1 MOL      0.106985
    121 H54         0.8940   -1.4870   -2.7860 hn        1 MOL      0.399339
    122 H55         0.5200   -3.0420   -3.6720 hn        1 MOL      0.399339
    123 N12         5.6020   -2.3530    0.2010 n         1 MOL     -0.524103
    124 C39         6.9250   -1.7440    0.4650 c3        1 MOL      0.181221
    125 C40         6.9690   -0.2250    0.1260 c         1 MOL      0.452402
    126 O19         7.3970    0.5840    0.9350 o         1 MOL     -0.537041
    127 C41         7.9870   -2.3930   -0.4600 c3        1 MOL     -0.087840
    128 C42         9.4290   -1.9370   -0.1860 ca        1 MOL     -0.088908
    129 C43        10.0510   -2.4270    0.9470 ca        1 MOL     -0.026617
    130 C44        10.0890   -1.0200   -1.0240 ca        1 MOL     -0.026617
    131 C45        11.3120   -2.0150    1.3190 ca        1 MOL     -0.385369
    132 C46        11.3810   -0.5550   -0.6460 ca        1 MOL     -0.385369
    133 C47        12.0030   -1.0110    0.5880 ca        1 MOL      0.469297
    134 O20        13.2100   -0.5410    0.9540 oh        1 MOL     -0.555475
    135 H56         5.6030   -3.1660   -0.4130 hn        1 MOL      0.305363
    136 H57         7.2270   -1.8420    1.5150 h1        1 MOL      0.041879
    137 H58         7.7290   -2.2910   -1.5080 hc        1 MOL      0.034257
    138 H59         7.9390   -3.4610   -0.2570 hc        1 MOL      0.034257
    139 H60         9.5490   -3.2010    1.5080 ha        1 MOL      0.113820
    140 H61         9.5940   -0.5860   -1.8750 ha        1 MOL      0.113820
    141 H62        11.7850   -2.3010    2.2490 ha        1 MOL      0.162788
    142 H63        11.8180    0.2450   -1.2150 ha        1 MOL      0.162788
    143 H64        13.5640    0.1650    0.4110 ho        1 MOL      0.397094
    144 N13         6.5820    0.1630   -1.1190 n         1 MOL     -0.053762
    145 C48         6.6300    1.5430   -1.5450 c3        1 MOL     -0.239625
    146 C49         5.6790    2.5390   -0.8550 c         1 MOL      0.487065
    147 O21         6.0290    3.6760   -0.6380 o         1 MOL     -0.541943
    148 C50         6.3800    1.5370   -3.0920 c3        1 MOL      0.071203
    149 C51         5.0490    1.0740   -3.5040 c3        1 MOL     -0.076254
    150 C52         5.0110    0.9300   -5.0210 c         1 MOL      0.672923
    151 O22         5.4710   -0.1380   -5.4310 o         1 MOL     -0.727144
    152 O23         4.6850    1.8870   -5.7410 o         1 MOL     -0.727144
    153 H65         6.3670   -0.5200   -1.8370 hn        1 MOL      0.187083
    154 H66         7.6160    1.9810   -1.3570 h1        1 MOL      0.082391
    155 H67         7.1790    0.8890   -3.4510 hc        1 MOL      0.003892
    156 H68         6.5640    2.5470   -3.4770 hc        1 MOL      0.003892
    157 H69         4.3360    1.8100   -3.1350 hc        1 MOL     -0.027187
    158 H70         4.7750    0.0810   -3.1430 hc        1 MOL     -0.027187
    159 N14         4.5610    2.0240   -0.3030 n         1 MOL     -0.061817
    160 C53         3.6350    2.7810    0.6050 c3        1 MOL     -0.253218
    161 C54         4.2040    2.9280    2.0370 c         1 MOL      0.457469
    162 O24         3.9360    3.9150    2.7370 o         1 MOL     -0.519316
    163 C55         2.2340    2.1300    0.6630 c3        1 MOL      0.112637
    164 C56         1.5000    1.9900   -0.7210 c3        1 MOL     -0.144159
    165 C57         0.1930    1.1680   -0.6250 c         1 MOL      0.725306
    166 O25        -0.9790    1.7160   -0.6040 o         1 MOL     -0.713325
    167 O26         0.2070   -0.0550   -0.4920 o         1 MOL     -0.713325
    168 H71         4.4710    1.0220   -0.3900 hn        1 MOL      0.064801
    169 H72         3.5500    3.7740    0.1700 h1        1 MOL      0.137770
    170 H73         1.6180    2.7570    1.3080 hc        1 MOL      0.052270
    171 H74         2.2400    1.1100    1.0360 hc        1 MOL      0.052270
    172 H75         2.2120    1.4370   -1.3300 hc        1 MOL      0.037814
    173 H76         1.2190    2.9500   -1.1340 hc        1 MOL      0.037814
    174 N15         4.9000    1.8140    2.5100 n         1 MOL     -0.088949
    175 C58         5.5010    1.6960    3.8430 c3        1 MOL     -0.264698
    176 H77         4.7130    1.6780    4.5960 h1        1 MOL      0.094489
    177 H78         6.0800    0.7740    3.9010 h1        1 MOL      0.094489
    178 H79         6.1570    2.5480    4.0230 h1        1 MOL      0.094489
    179 H80         4.9180    0.9600    1.9680 hn        1 MOL      0.065388
    180 Ca1        -2.3050   -0.6260   -0.9870 Ca        1 MOL      1.760383
    181 O27        -1.2560   -0.3710   -3.5320 oh        1 MOL     -0.917653
    182 H81        -1.2430   -1.1520   -4.0850 ho        1 MOL      0.431360
    183 H82        -1.8950    0.2020   -3.9650 ho        1 MOL      0.431360
@<TRIPOS>BOND
     1    1    2 1   
     2    1    4 1   
     3    1    5 1   
     4    1    6 1   
     5    2    3 2   
     6    2    7 1   
     7    7    8 1   
     8    7   15 1   
     9    8    9 1   
    10    8   11 1   
    11    8   16 1   
    12    9   10 2   
    13    9   19 1   
    14   11   12 1   
    15   11   17 1   
    16   11   18 1   
    17   12   13 1   
    18   12   14 1   
    19   19   20 1   
    20   19   27 1   
    21   20   21 1   
    22   20   23 1   
    23   20   28 1   
    24   21   22 2   
    25   21   38 1   
    26   23   24 1   
    27   23   25 1   
    28   23   29 1   
    29   24   26 1   
    30   24   30 1   
    31   24   31 1   
    32   25   32 1   
    33   25   33 1   
    34   25   34 1   
    35   26   35 1   
    36   26   36 1   
    37   26   37 1   
    38   38   39 1   
    39   38   46 1   
    40   39   40 1   
    41   39   42 1   
    42   39   47 1   
    43   40   41 2   
    44   40   50 1   
    45   42   43 1   
    46   42   48 1   
    47   42   49 1   
    48   43   44 1   
    49   43   45 1   
    50   50   51 1   
    51   50   54 1   
    52   51   52 1   
    53   51   55 1   
    54   51   56 1   
    55   52   53 2   
    56   52   57 1   
    57   57   58 1   
    58   57   65 1   
    59   58   59 1   
    60   58   61 1   
    61   58   66 1   
    62   59   60 2   
    63   59   69 1   
    64   61   62 1   
    65   61   67 1   
    66   61   68 1   
    67   62   63 1   
    68   62   64 1   
    69   69   70 1   
    70   69   73 1   
    71   70   71 1   
    72   70   74 1   
    73   70   75 1   
    74   71   72 2   
    75   71   76 1   
    76   76   77 1   
    77   76   85 1   
    78   77   78 1   
    79   77   80 1   
    80   77   86 1   
    81   78   79 2   
    82   78   93 1   
    83   80   81 1   
    84   80   87 1   
    85   80   88 1   
    86   81   82 1   
    87   81   89 1   
    88   81   90 1   
    89   82   83 1   
    90   82   84 2   
    91   83   91 1   
    92   83   92 1   
    93   93   94 1   
    94   93  100 1   
    95   94   95 1   
    96   94   97 1   
    97   94  101 1   
    98   95   96 2   
    99   95  109 1   
   100   97   98 1   
   101   97   99 1   
   102   97  102 1   
   103   98  103 1   
   104   98  104 1   
   105   98  105 1   
   106   99  106 1   
   107   99  107 1   
   108   99  108 1   
   109  109  110 1   
   110  109  117 1   
   111  110  111 1   
   112  110  113 1   
   113  110  118 1   
   114  111  112 2   
   115  111  123 1   
   116  113  114 1   
   117  113  119 1   
   118  113  120 1   
   119  114  115 1   
   120  114  116 2   
   121  115  121 1   
   122  115  122 1   
   123  123  124 1   
   124  123  135 1   
   125  124  125 1   
   126  124  127 1   
   127  124  136 1   
   128  125  126 2   
   129  125  144 1   
   130  127  128 1   
   131  127  137 1   
   132  127  138 1   
   133  128  129 ar  
   134  128  130 ar  
   135  129  131 ar  
   136  129  139 1   
   137  130  132 ar  
   138  130  140 1   
   139  131  133 ar  
   140  131  141 1   
   141  132  133 ar  
   142  132  142 1   
   143  133  134 1   
   144  134  143 1   
   145  144  145 1   
   146  144  153 1   
   147  145  146 1   
   148  145  148 1   
   149  145  154 1   
   150  146  147 2   
   151  146  159 1   
   152  148  149 1   
   153  148  155 1   
   154  148  156 1   
   155  149  150 1   
   156  149  157 1   
   157  149  158 1   
   158  150  151 1   
   159  150  152 1   
   160  159  160 1   
   161  159  168 1   
   162  160  161 1   
   163  160  163 1   
   164  160  169 1   
   165  161  162 2   
   166  161  174 1   
   167  163  164 1   
   168  163  170 1   
   169  163  171 1   
   170  164  165 1   
   171  164  172 1   
   172  164  173 1   
   173  165  166 1   
   174  165  167 1   
   175  174  175 1   
   176  174  179 1   
   177  175  176 1   
   178  175  177 1   
   179  175  178 1   
   180  181  182 1   
   181  181  183 1   
@<TRIPOS>SUBSTRUCTURE
     1 MOL         1 TEMP              0 ****  ****    0 ROOT
