@<TRIPOS>MOLECULE
MOL
  176   174     1     0     0
SMALL
resp


@<TRIPOS>ATOM
      1 C1         -0.6720   -3.7690    6.1750 c3        1 MOL     -0.337882
      2 C2         -0.4560   -2.9320    4.8910 c         1 MOL      0.697174
      3 O1         -1.4040   -2.5950    4.2020 o         1 MOL     -0.577154
      4 H1         -1.1810   -4.6990    5.9210 hc        1 MOL      0.089700
      5 H2          0.2930   -3.9960    6.6270 hc        1 MOL      0.089700
      6 H3         -1.2800   -3.2030    6.8800 hc        1 MOL      0.089700
      7 N1          0.7970   -2.7280    4.5360 n         1 MOL     -0.606111
      8 C3          1.1990   -2.3080    3.1980 c3        1 MOL      0.305218
      9 C4          1.5190   -3.6180    2.3400 c         1 MOL      0.504126
     10 O2          2.2960   -4.4270    2.7830 o         1 MOL     -0.552702
     11 C5          2.5140   -1.5280    3.1620 c3        1 MOL     -0.450259
     12 C6          2.8910   -1.0490    1.7950 c         1 MOL      1.131899
     13 O3          3.0220    0.1840    1.5310 o         1 MOL     -0.890672
     14 O4          3.0580   -1.8200    0.8560 o         1 MOL     -0.890672
     15 H4          1.5450   -2.9060    5.2020 hn        1 MOL      0.330806
     16 H5          0.4060   -1.8190    2.6290 h1        1 MOL     -0.087595
     17 H6          3.3160   -2.1850    3.5220 hc        1 MOL      0.097572
     18 H7          2.3130   -0.6180    3.7200 hc        1 MOL      0.097572
     19 N2          1.0570   -3.7200    1.0620 n         1 MOL     -0.303013
     20 C7          1.1250   -4.9820    0.3560 c3        1 MOL     -0.100350
     21 C8          2.2940   -5.1570   -0.5810 c         1 MOL      0.622780
     22 O5          2.1930   -6.1700   -1.2920 o         1 MOL     -0.621182
     23 C9         -0.2070   -5.2630   -0.3450 c3        1 MOL      0.092761
     24 C10        -0.4940   -4.5800   -1.7130 c3        1 MOL      0.099956
     25 C11        -1.8790   -4.8820   -2.2810 c3        1 MOL     -0.111879
     26 C12        -2.3600   -3.8990   -3.4030 c3        1 MOL      0.104098
     27 N3         -1.5910   -4.1780   -4.6080 n4        1 MOL     -0.370108
     28 H8          0.4670   -2.9900    0.6900 hn        1 MOL      0.256524
     29 H9          1.3760   -5.7300    1.1050 h1        1 MOL      0.104517
     30 H10        -1.0300   -4.9610    0.3020 hc        1 MOL     -0.003723
     31 H11        -0.3610   -6.3370   -0.4230 hc        1 MOL     -0.003723
     32 H12         0.2050   -4.9290   -2.4730 hc        1 MOL     -0.043352
     33 H13        -0.2970   -3.5100   -1.6180 hc        1 MOL     -0.043352
     34 H14        -2.6070   -4.7140   -1.4860 hc        1 MOL      0.047044
     35 H15        -1.9540   -5.9380   -2.5330 hc        1 MOL      0.047044
     36 H16        -2.2540   -2.8860   -3.0120 hx        1 MOL      0.048615
     37 H17        -3.4250   -3.9320   -3.6100 hx        1 MOL      0.048615
     38 H18        -1.3280   -5.1540   -4.6470 hn        1 MOL      0.331648
     39 H19        -2.0810   -3.8350   -5.4200 hn        1 MOL      0.331648
     40 H20        -0.6850   -3.7410   -4.5090 hn        1 MOL      0.331648
     41 N4          3.2050   -4.2700   -0.6580 n         1 MOL     -0.398660
     42 C13         4.2390   -4.3210   -1.6700 c3        1 MOL      0.029579
     43 C14         5.5840   -3.7530   -1.1330 c         1 MOL      0.478774
     44 O6          6.6400   -4.1650   -1.5800 o         1 MOL     -0.540220
     45 C15         3.8040   -3.4800   -2.8920 c3        1 MOL     -0.118452
     46 C16         3.2470   -2.1440   -2.5730 c         1 MOL      0.676485
     47 O7          3.9510   -1.2620   -2.0800 o         1 MOL     -0.744697
     48 O8          2.0230   -1.9110   -2.6160 o         1 MOL     -0.744697
     49 H21         3.2220   -3.5070    0.0010 hn        1 MOL      0.236169
     50 H22         4.4490   -5.3340   -1.9960 h1        1 MOL      0.101139
     51 H23         3.1010   -4.0720   -3.4900 hc        1 MOL      0.039748
     52 H24         4.6710   -3.3800   -3.5470 hc        1 MOL      0.039748
     53 N5          5.5390   -2.8560   -0.1030 n         1 MOL     -0.306624
     54 C17         6.7970   -2.3090    0.4580 c3        1 MOL     -0.103806
     55 C18         7.2220   -0.8190    0.1860 c         1 MOL      0.446883
     56 O9          8.1640   -0.3540    0.8240 o         1 MOL     -0.534967
     57 H25         4.6530   -2.5750    0.2980 hn        1 MOL      0.283130
     58 H26         7.5970   -3.0040    0.2480 h1        1 MOL      0.101099
     59 H27         6.6330   -2.4870    1.5200 h1        1 MOL      0.101099
     60 N6          6.4220   -0.0710   -0.6160 n         1 MOL     -0.241494
     61 C19         6.6820    1.3710   -0.8100 c3        1 MOL     -0.027809
     62 C20         6.2720    2.2990    0.3990 c         1 MOL      0.375568
     63 O10         6.5690    3.4790    0.4270 o         1 MOL     -0.485383
     64 C21         6.0880    1.9270   -2.1300 c3        1 MOL     -0.308995
     65 C22         4.5600    1.8330   -2.2140 c         1 MOL      0.606883
     66 N7          4.0460    1.6450   -3.3870 n         1 MOL     -0.524451
     67 O11         3.8410    1.8600   -1.2470 o         1 MOL     -0.637839
     68 H28         5.7180   -0.5490   -1.1660 hn        1 MOL      0.230803
     69 H29         7.7590    1.4480   -0.8840 h1        1 MOL      0.123226
     70 H30         6.6240    1.4710   -2.9610 hc        1 MOL      0.120643
     71 H31         6.3110    2.9850   -2.1960 hc        1 MOL      0.120643
     72 H32         4.5800    1.6430   -4.2450 hn        1 MOL      0.289370
     73 H33         3.0370    1.6670   -3.4080 hn        1 MOL      0.289370
     74 N8          5.5810    1.7130    1.3620 n         1 MOL     -0.114533
     75 C23         5.1720    2.2870    2.6760 c3        1 MOL     -0.052349
     76 C24         4.0470    3.3420    2.6570 c         1 MOL      0.483686
     77 O12         4.1310    4.3560    3.3390 o         1 MOL     -0.562392
     78 H34         5.3150    0.7550    1.2290 hn        1 MOL      0.177688
     79 H35         6.0130    2.7230    3.2090 h1        1 MOL      0.048833
     80 H36         4.7440    1.4120    3.1700 h1        1 MOL      0.048833
     81 N9          3.0980    3.1510    1.7750 n         1 MOL     -0.053236
     82 C25         1.8670    3.9110    1.7650 c3        1 MOL      0.016091
     83 C26         0.7130    3.0300    1.3540 c         1 MOL      0.392613
     84 O13         0.8040    2.0200    0.6230 o         1 MOL     -0.660304
     85 C27         2.1490    5.1910    1.0020 c3        1 MOL     -0.366337
     86 C28         2.6410    4.9760   -0.4710 ca        1 MOL      0.286618
     87 C29         1.7780    4.4970   -1.5130 ca        1 MOL     -0.286782
     88 C30         3.8940    5.3640   -0.8890 ca        1 MOL     -0.286782
     89 C31         2.2170    4.4020   -2.8550 ca        1 MOL     -0.210365
     90 C32         4.3540    5.2610   -2.2120 ca        1 MOL     -0.210365
     91 C33         3.5270    4.7440   -3.1850 ca        1 MOL      0.326770
     92 O14         3.9010    4.6480   -4.5340 oh        1 MOL     -0.503236
     93 H37         3.0840    2.2280    1.3580 hn        1 MOL      0.143520
     94 H38         1.6330    4.1440    2.8050 h1        1 MOL      0.061275
     95 H39         2.9760    5.7210    1.4940 hc        1 MOL      0.131255
     96 H40         1.2650    5.8120    0.9370 hc        1 MOL      0.131255
     97 H41         0.8100    4.1520   -1.1700 ha        1 MOL      0.184727
     98 H42         4.6690    5.6110   -0.1900 ha        1 MOL      0.184727
     99 H43         1.5980    3.9620   -3.6300 ha        1 MOL      0.142063
    100 H44         5.3680    5.5240   -2.4860 ha        1 MOL      0.142063
    101 H45         3.3100    4.0130   -4.9560 ho        1 MOL      0.317215
    102 N10        -0.4930    3.3690    1.7890 n         1 MOL     -0.124147
    103 C34        -1.7320    2.7130    1.5590 c3        1 MOL     -0.281550
    104 C35        -2.8310    3.5470    0.8710 c         1 MOL      0.533031
    105 O15        -3.0210    4.6800    1.2440 o         1 MOL     -0.548243
    106 C36        -2.1390    1.9140    2.7720 c3        1 MOL      0.255333
    107 C37        -2.7680    2.7800    3.8320 c3        1 MOL     -0.066907
    108 C38        -0.9610    1.1060    3.3960 c3        1 MOL      0.267267
    109 C39        -3.6120    2.0390    4.8660 c3        1 MOL      0.027634
    110 H46        -0.6380    4.2100    2.3250 hn        1 MOL      0.225491
    111 H47        -1.5340    1.9210    0.8400 h1        1 MOL      0.146286
    112 H48        -2.8240    1.1060    2.5070 hc        1 MOL     -0.065291
    113 H49        -3.5480    3.4050    3.3910 hc        1 MOL      0.005925
    114 H50        -1.9800    3.3560    4.3160 hc        1 MOL      0.005925
    115 H51        -0.6180    0.3580    2.6790 hc        1 MOL     -0.066638
    116 H52        -0.1720    1.7500    3.7690 hc        1 MOL     -0.066638
    117 H53        -1.3900    0.5720    4.2360 hc        1 MOL     -0.066638
    118 H54        -2.9070    1.6180    5.5680 hc        1 MOL     -0.009031
    119 H55        -4.2250    2.6970    5.4780 hc        1 MOL     -0.009031
    120 H56        -4.2590    1.2810    4.4180 hc        1 MOL     -0.009031
    121 N11        -3.7750    2.9670    0.1240 n         1 MOL     -0.238040
    122 C40        -5.0250    3.5560   -0.4130 c3        1 MOL     -0.014509
    123 C41        -6.0200    2.4560   -0.3280 c         1 MOL      0.479416
    124 O16        -5.7150    1.3070    0.1040 o         1 MOL     -0.309637
    125 C42        -4.8790    4.1050   -1.8300 c3        1 MOL      0.172968
    126 O17        -4.1140    5.2610   -1.9340 oh        1 MOL     -0.572876
    127 H57        -3.7470    1.9630    0.1370 hn        1 MOL      0.053014
    128 H58        -5.3460    4.3370    0.2730 h1        1 MOL      0.106746
    129 H59        -5.8220    4.3110   -2.3270 h1        1 MOL      0.029286
    130 H60        -4.5130    3.3480   -2.5180 h1        1 MOL      0.029286
    131 H61        -4.6650    6.0060   -1.6770 ho        1 MOL      0.398195
    132 N12        -7.2180    2.8500   -0.7350 n         1 MOL     -0.687768
    133 C43        -8.3990    2.0160   -0.3050 c3        1 MOL      0.398162
    134 C44        -8.3550    0.5420   -0.6660 c         1 MOL      0.365899
    135 O18        -8.5750   -0.2230    0.2370 o         1 MOL     -0.488350
    136 C45        -9.5850    2.7110   -0.8870 c3        1 MOL     -0.505240
    137 H62        -7.3540    3.8560   -0.7730 hn        1 MOL      0.353756
    138 H63        -8.4390    2.0190    0.7790 h1        1 MOL      0.049840
    139 H64        -9.5830    3.6870   -0.3800 hc        1 MOL      0.137396
    140 H65        -9.4560    2.8210   -1.9660 hc        1 MOL      0.137396
    141 H66       -10.5470    2.1980   -0.8220 hc        1 MOL      0.137396
    142 N13        -8.1270    0.2060   -1.9340 n         1 MOL     -0.317424
    143 C46        -7.9910   -1.1780   -2.3320 c3        1 MOL      0.131839
    144 C47        -6.8440   -1.9330   -1.6970 c         1 MOL      0.464451
    145 O19        -7.1060   -3.1180   -1.4470 o         1 MOL     -0.510989
    146 C48        -7.8840   -1.2950   -3.8680 c3        1 MOL     -0.271075
    147 H67        -8.0980    0.9500   -2.6170 hn        1 MOL      0.238538
    148 H68        -8.9100   -1.7130   -2.0590 h1        1 MOL      0.086769
    149 H69        -8.7400   -0.7470   -4.2440 hc        1 MOL      0.078402
    150 H70        -6.8730   -0.9310   -4.1030 hc        1 MOL      0.078402
    151 H71        -8.0450   -2.3300   -4.1660 hc        1 MOL      0.078402
    152 N14        -5.7140   -1.3050   -1.3010 n         1 MOL     -0.362048
    153 C49        -4.7800   -1.9710   -0.4070 c3        1 MOL      0.009244
    154 C50        -5.3130   -2.2160    0.9750 c         1 MOL      0.403706
    155 O20        -5.1650   -3.3280    1.4840 o         1 MOL     -0.516524
    156 C51        -3.4890   -1.1970   -0.4810 c3        1 MOL     -0.180458
    157 C52        -2.2490   -1.7880    0.2770 c3        1 MOL     -0.143641
    158 C53        -0.9580   -1.1070   -0.2170 c         1 MOL      0.784124
    159 O21         0.0430   -1.2570    0.4770 o         1 MOL     -0.737832
    160 O22        -0.8200   -0.3800   -1.2760 o         1 MOL     -0.737832
    161 H72        -5.6320   -0.3030   -1.2390 hn        1 MOL      0.187086
    162 H73        -4.5370   -2.9540   -0.8250 h1        1 MOL      0.089004
    163 H74        -3.6900   -0.2190   -0.0650 hc        1 MOL      0.064565
    164 H75        -3.2430   -1.0690   -1.5370 hc        1 MOL      0.064565
    165 H76        -2.2230   -2.8660    0.1010 hc        1 MOL      0.082041
    166 H77        -2.3600   -1.7790    1.3640 hc        1 MOL      0.082041
    167 N15        -6.0560   -1.2490    1.5290 n         1 MOL     -0.019410
    168 C54        -6.7910   -1.3990    2.7990 c3        1 MOL     -0.067575
    169 H78        -7.1560   -2.4210    2.8880 h1        1 MOL      0.054258
    170 H79        -6.1260   -1.1760    3.6330 h1        1 MOL      0.054258
    171 H80        -7.6360   -0.7100    2.8140 h1        1 MOL      0.054258
    172 H81        -6.0880   -0.3530    1.0570 hn        1 MOL      0.042990
    173 Ca1         1.9440    0.0780   -0.7280 Ca        1 MOL      1.790800
    174 O23         1.1010    1.0790   -3.0430 oh        1 MOL     -0.848841
    175 H82         0.6120    1.8130   -3.4100 ho        1 MOL      0.408185
    176 H83         0.6100    0.3020   -3.3290 ho        1 MOL      0.408185
@<TRIPOS>BOND
     1    1    2 1   
     2    1    4 1   
     3    1    5 1   
     4    1    6 1   
     5    2    3 2   
     6    2    7 1   
     7    7    8 1   
     8    7   15 1   
     9    8    9 1   
    10    8   11 1   
    11    8   16 1   
    12    9   10 2   
    13    9   19 1   
    14   11   12 1   
    15   11   17 1   
    16   11   18 1   
    17   12   13 1   
    18   12   14 1   
    19   19   20 1   
    20   19   28 1   
    21   20   21 1   
    22   20   23 1   
    23   20   29 1   
    24   21   22 2   
    25   21   41 1   
    26   23   24 1   
    27   23   30 1   
    28   23   31 1   
    29   24   25 1   
    30   24   32 1   
    31   24   33 1   
    32   25   26 1   
    33   25   34 1   
    34   25   35 1   
    35   26   27 1   
    36   26   36 1   
    37   26   37 1   
    38   27   38 1   
    39   27   39 1   
    40   27   40 1   
    41   41   42 1   
    42   41   49 1   
    43   42   43 1   
    44   42   45 1   
    45   42   50 1   
    46   43   44 2   
    47   43   53 1   
    48   45   46 1   
    49   45   51 1   
    50   45   52 1   
    51   46   47 1   
    52   46   48 1   
    53   53   54 1   
    54   53   57 1   
    55   54   55 1   
    56   54   58 1   
    57   54   59 1   
    58   55   56 2   
    59   55   60 1   
    60   60   61 1   
    61   60   68 1   
    62   61   62 1   
    63   61   64 1   
    64   61   69 1   
    65   62   63 2   
    66   62   74 1   
    67   64   65 1   
    68   64   70 1   
    69   64   71 1   
    70   65   66 1   
    71   65   67 2   
    72   66   72 1   
    73   66   73 1   
    74   74   75 1   
    75   74   78 1   
    76   75   76 1   
    77   75   79 1   
    78   75   80 1   
    79   76   77 2   
    80   76   81 1   
    81   81   82 1   
    82   81   93 1   
    83   82   83 1   
    84   82   85 1   
    85   82   94 1   
    86   83   84 2   
    87   83  102 1   
    88   85   86 1   
    89   85   95 1   
    90   85   96 1   
    91   86   87 ar  
    92   86   88 ar  
    93   87   89 ar  
    94   87   97 1   
    95   88   90 ar  
    96   88   98 1   
    97   89   91 ar  
    98   89   99 1   
    99   90   91 ar  
   100   90  100 1   
   101   91   92 1   
   102   92  101 1   
   103  102  103 1   
   104  102  110 1   
   105  103  104 1   
   106  103  106 1   
   107  103  111 1   
   108  104  105 2   
   109  104  121 1   
   110  106  107 1   
   111  106  108 1   
   112  106  112 1   
   113  107  109 1   
   114  107  113 1   
   115  107  114 1   
   116  108  115 1   
   117  108  116 1   
   118  108  117 1   
   119  109  118 1   
   120  109  119 1   
   121  109  120 1   
   122  121  122 1   
   123  121  127 1   
   124  122  123 1   
   125  122  125 1   
   126  122  128 1   
   127  123  124 2   
   128  123  132 1   
   129  125  126 1   
   130  125  129 1   
   131  125  130 1   
   132  126  131 1   
   133  132  133 1   
   134  132  137 1   
   135  133  134 1   
   136  133  136 1   
   137  133  138 1   
   138  134  135 2   
   139  134  142 1   
   140  136  139 1   
   141  136  140 1   
   142  136  141 1   
   143  142  143 1   
   144  142  147 1   
   145  143  144 1   
   146  143  146 1   
   147  143  148 1   
   148  144  145 2   
   149  144  152 1   
   150  146  149 1   
   151  146  150 1   
   152  146  151 1   
   153  152  153 1   
   154  152  161 1   
   155  153  154 1   
   156  153  156 1   
   157  153  162 1   
   158  154  155 2   
   159  154  167 1   
   160  156  157 1   
   161  156  163 1   
   162  156  164 1   
   163  157  158 1   
   164  157  165 1   
   165  157  166 1   
   166  158  159 1   
   167  158  160 1   
   168  167  168 1   
   169  167  172 1   
   170  168  169 1   
   171  168  170 1   
   172  168  171 1   
   173  174  175 1   
   174  174  176 1   
@<TRIPOS>SUBSTRUCTURE
     1 MOL         1 TEMP              0 ****  ****    0 ROOT
