@<TRIPOS>MOLECULE
MOL
  175   173     1     0     0
SMALL
resp


@<TRIPOS>ATOM
      1 C1          1.0690    3.0080    5.6150 c3        1 MOL     -0.288658
      2 C2          0.3590    3.1290    4.2630 c         1 MOL      0.730219
      3 O1          0.9610    3.3990    3.2470 o         1 MOL     -0.489277
      4 H1          1.0040    3.9580    6.1450 hc        1 MOL      0.069536
      5 H2          0.5930    2.2280    6.2080 hc        1 MOL      0.069536
      6 H3          2.1170    2.7550    5.4540 hc        1 MOL      0.069536
      7 N1         -0.9880    3.0730    4.2400 n         1 MOL     -0.726723
      8 C3         -1.7280    3.1720    2.9700 c3        1 MOL      0.289713
      9 C4         -1.5050    4.4480    2.1640 c         1 MOL      0.526369
     10 O2         -1.2110    5.4840    2.7540 o         1 MOL     -0.554125
     11 C5         -3.1960    2.8970    3.1970 c3        1 MOL     -0.319214
     12 C6         -3.9030    2.9570    1.8740 c         1 MOL      0.700538
     13 O3         -3.4980    2.2620    0.9050 o         1 MOL     -0.642848
     14 O4         -4.8960    3.7370    1.8630 o         1 MOL     -0.642848
     15 H4         -1.5710    3.0180    5.0620 hn        1 MOL      0.341021
     16 H5         -1.2830    2.3870    2.3630 h1        1 MOL     -0.004138
     17 H6         -3.6100    3.6390    3.8710 hc        1 MOL      0.048546
     18 H7         -3.2870    1.8930    3.6140 hc        1 MOL      0.048546
     19 N2         -1.4120    4.3240    0.8000 n         1 MOL     -0.510620
     20 C7         -1.3460    5.3640   -0.2530 c3        1 MOL      0.281921
     21 C8         -2.3060    5.2450   -1.4750 c         1 MOL      0.333839
     22 O5         -2.2270    6.0140   -2.4560 o         1 MOL     -0.555584
     23 C9          0.0870    5.4480   -0.7360 c3        1 MOL     -0.169570
     24 H8         -1.3710    3.3900    0.4020 hn        1 MOL      0.495558
     25 H9         -1.5150    6.3560    0.1650 h1        1 MOL      0.013628
     26 H10         0.5800    5.6240    0.2180 hc        1 MOL      0.037053
     27 H11         0.3660    4.4990   -1.2020 hc        1 MOL      0.037053
     28 H12         0.3570    6.2310   -1.4450 hc        1 MOL      0.037053
     29 N3         -3.1990    4.2530   -1.4320 n         1 MOL     -0.127793
     30 C10        -4.2440    4.0070   -2.5180 c3        1 MOL      0.174427
     31 C11        -5.6170    3.4070   -2.0090 c         1 MOL      0.276418
     32 O6         -6.6290    3.6010   -2.6820 o         1 MOL     -0.532336
     33 C12        -3.6830    3.0110   -3.6510 c3        1 MOL     -0.340072
     34 C13        -3.1850    1.7180   -3.1190 c         1 MOL      0.794713
     35 O7         -2.4040    1.1040   -3.8580 o         1 MOL     -0.715012
     36 O8         -3.4570    1.3360   -1.9770 o         1 MOL     -0.715012
     37 H13        -3.2220    3.6330   -0.6400 hn        1 MOL     -0.064699
     38 H14        -4.5020    4.9480   -2.9890 h1        1 MOL      0.041309
     39 H15        -2.8760    3.5990   -4.0850 hc        1 MOL      0.088055
     40 H16        -4.4880    2.8180   -4.3630 hc        1 MOL      0.088055
     41 N4         -5.6910    2.5810   -0.9290 n         1 MOL      0.029789
     42 C14        -6.9320    1.9890   -0.4880 c3        1 MOL     -0.261598
     43 C15        -7.2670    0.5590   -1.0730 c         1 MOL      0.415022
     44 O9         -8.4950    0.2330   -0.9660 o         1 MOL     -0.563213
     45 H17        -4.9160    2.5160   -0.2940 hn        1 MOL      0.077402
     46 H18        -7.7360    2.6540   -0.7770 h1        1 MOL      0.122520
     47 H19        -6.9210    1.9530    0.6000 h1        1 MOL      0.122520
     48 N5         -6.3250   -0.2210   -1.6680 n         1 MOL     -0.040619
     49 C16        -6.5530   -1.5010   -2.2720 c3        1 MOL     -0.243119
     50 C17        -6.8000   -2.6940   -1.3640 c         1 MOL      0.450062
     51 O10        -7.4100   -3.7200   -1.7690 o         1 MOL     -0.558876
     52 C18        -5.3550   -1.7870   -3.2970 c3        1 MOL     -0.046835
     53 C19        -4.0200   -1.8700   -2.6890 c         1 MOL      0.424436
     54 N6         -2.9980   -1.9130   -3.4750 n         1 MOL     -0.596977
     55 O11        -3.7640   -1.9370   -1.4990 o         1 MOL     -0.464863
     56 H20        -5.4230    0.1400   -1.9400 hn        1 MOL      0.174567
     57 H21        -7.3950   -1.3990   -2.9550 h1        1 MOL      0.129881
     58 H22        -5.4050   -1.2170   -4.2270 hc        1 MOL      0.061138
     59 H23        -5.5050   -2.8020   -3.6440 hc        1 MOL      0.061138
     60 H24        -3.0770   -1.7230   -4.4710 hn        1 MOL      0.331841
     61 H25        -2.0770   -1.9940   -3.0870 hn        1 MOL      0.331841
     62 N7         -6.3970   -2.6290   -0.1140 n         1 MOL      0.017451
     63 C20        -6.6250   -3.4610    1.0270 c3        1 MOL     -0.396898
     64 C21        -5.4180   -4.2250    1.4420 c         1 MOL      0.688202
     65 O12        -5.5340   -5.2540    2.1090 o         1 MOL     -0.609221
     66 H26        -5.8830   -1.7950    0.1550 hn        1 MOL      0.107396
     67 H27        -7.4320   -4.1370    0.7360 h1        1 MOL      0.135800
     68 H28        -6.7180   -2.8420    1.9140 h1        1 MOL      0.135800
     69 N8         -4.2160   -3.8260    1.0810 n         1 MOL     -0.262260
     70 C22        -2.9520   -4.5960    1.2360 c3        1 MOL     -0.367734
     71 C23        -1.7490   -3.6320    1.3300 c         1 MOL      0.714339
     72 O13        -1.8000   -2.4960    0.7710 o         1 MOL     -0.529547
     73 C24        -2.7040   -5.5330   -0.0220 c3        1 MOL      0.537351
     74 C25        -3.6190   -6.7660   -0.0480 c3        1 MOL     -0.584445
     75 O14        -2.7530   -4.9180   -1.2770 oh        1 MOL     -0.545094
     76 H29        -4.2340   -3.0280    0.4610 hn        1 MOL      0.109552
     77 H30        -2.9640   -5.2200    2.1340 h1        1 MOL      0.151049
     78 H31        -1.7060   -5.9540    0.0460 h1        1 MOL     -0.026581
     79 H32        -2.4140   -4.0460   -1.0590 ho        1 MOL      0.341072
     80 H33        -3.2500   -7.5570   -0.6980 hc        1 MOL      0.152947
     81 H34        -3.8060   -7.1600    0.9540 hc        1 MOL      0.152947
     82 H35        -4.5990   -6.3950   -0.3730 hc        1 MOL      0.152947
     83 N9         -0.6450   -3.9820    2.0570 n         1 MOL     -0.634329
     84 C26         0.5190   -3.0850    2.0990 c3        1 MOL     -0.145443
     85 C27         1.2300   -3.1870    0.7500 c         1 MOL      0.384676
     86 O15         1.3720   -4.3080    0.1940 o         1 MOL     -0.566720
     87 C28         1.5050   -3.4710    3.2210 c3        1 MOL      0.482451
     88 C29         0.9550   -3.0660    4.5780 c3        1 MOL     -0.023344
     89 C30         2.8770   -2.8810    2.9830 c3        1 MOL     -0.186238
     90 C31         1.7880   -3.1430    5.9210 c3        1 MOL     -0.182770
     91 H36        -0.5990   -4.8900    2.4960 hn        1 MOL      0.335423
     92 H37         0.2000   -2.0460    2.2030 h1        1 MOL      0.041989
     93 H38         1.7510   -4.5300    3.2670 hc        1 MOL     -0.075028
     94 H39         0.1560   -3.7830    4.7300 hc        1 MOL     -0.018623
     95 H40         0.6220   -2.0230    4.4910 hc        1 MOL     -0.018623
     96 H41         2.7190   -1.8000    2.9630 hc        1 MOL      0.008619
     97 H42         3.4590   -3.1350    3.8700 hc        1 MOL      0.008619
     98 H43         3.4110   -3.1270    2.0660 hc        1 MOL      0.008619
     99 H44         2.5550   -3.9060    5.9010 hc        1 MOL      0.044509
    100 H45         2.2470   -2.1560    6.0220 hc        1 MOL      0.044509
    101 H46         1.1320   -3.2470    6.7970 hc        1 MOL      0.044509
    102 N10         1.6020   -2.0840    0.1460 n         1 MOL     -0.026025
    103 C32         2.3950   -2.0570   -1.1240 c3        1 MOL     -0.025594
    104 C33         3.8940   -1.7200   -0.8960 c         1 MOL      0.365735
    105 O16         4.3170   -1.3470    0.2440 o         1 MOL     -0.381155
    106 C34         1.7150   -1.1990   -2.1790 c3        1 MOL     -0.198601
    107 C35         0.2130   -1.4920   -2.3130 c         1 MOL      0.759388
    108 O17        -0.5680   -0.9240   -1.5470 o         1 MOL     -0.691860
    109 O18        -0.1730   -2.2870   -3.1580 o         1 MOL     -0.691860
    110 H47         1.2300   -1.1970    0.4680 hn        1 MOL      0.323953
    111 H48         2.4450   -2.9980   -1.6780 h1        1 MOL      0.070232
    112 H49         2.1610   -1.2120   -3.1710 hc        1 MOL      0.046735
    113 H50         1.8600   -0.1630   -1.8770 hc        1 MOL      0.046735
    114 N11         4.7670   -1.7980   -1.8630 n         1 MOL     -0.456313
    115 C36         6.2040   -1.5500   -1.6960 c3        1 MOL      0.251835
    116 C37         6.5830   -0.1100   -1.1510 c         1 MOL      0.351087
    117 O19         7.2780   -0.0400   -0.1500 o         1 MOL     -0.508694
    118 C38         7.1440   -1.9770   -2.8420 c3        1 MOL     -0.067762
    119 C39         8.6600   -1.8100   -2.6450 ca        1 MOL      0.081462
    120 C40         9.3530   -2.7310   -1.8380 ca        1 MOL     -0.198837
    121 C41         9.3870   -0.6610   -3.1640 ca        1 MOL     -0.198837
    122 C42        10.7150   -2.5420   -1.5370 ca        1 MOL     -0.047911
    123 C43        10.7660   -0.5670   -2.9870 ca        1 MOL     -0.047911
    124 C44        11.4520   -1.4420   -2.1990 ca        1 MOL     -0.178750
    125 H51         4.4110   -2.1620   -2.7360 hn        1 MOL      0.290985
    126 H52         6.5820   -2.2260   -0.9280 h1        1 MOL      0.033868
    127 H53         6.8780   -1.3410   -3.6830 hc        1 MOL      0.020715
    128 H54         6.9190   -3.0000   -3.1490 hc        1 MOL      0.020715
    129 H55         8.8090   -3.5510   -1.3980 ha        1 MOL      0.127748
    130 H56         8.7940    0.1030   -3.6500 ha        1 MOL      0.127748
    131 H57        11.2890   -3.2170   -0.9160 ha        1 MOL      0.096163
    132 H58        11.2460    0.3220   -3.3620 ha        1 MOL      0.096163
    133 H59        12.4900   -1.3410   -1.9150 ha        1 MOL      0.120341
    134 N12         6.1860    1.0030   -1.8000 n         1 MOL     -0.014116
    135 C45         6.4790    2.3620   -1.3370 c3        1 MOL      0.039423
    136 C46         5.7810    2.5240    0.0520 c         1 MOL      0.335493
    137 O20         6.2260    3.4260    0.8060 o         1 MOL     -0.512098
    138 C47         6.0920    3.3280   -2.3910 c3        1 MOL     -0.291847
    139 C48         4.9600    2.4660   -3.0990 c3        1 MOL      0.085500
    140 C49         5.4470    1.0600   -3.0570 c3        1 MOL     -0.056652
    141 H60         7.5560    2.4540   -1.2090 h1        1 MOL      0.070646
    142 H61         5.7150    4.2360   -1.9230 hc        1 MOL      0.107404
    143 H62         6.8880    3.4750   -3.1220 hc        1 MOL      0.107404
    144 H63         4.0400    2.5470   -2.5300 hc        1 MOL      0.015176
    145 H64         4.7440    2.7850   -4.1220 hc        1 MOL      0.015176
    146 H65         4.5570    0.4180   -3.0150 h1        1 MOL      0.012085
    147 H66         6.1030    0.8710   -3.9000 h1        1 MOL      0.012085
    148 N13         4.8220    1.6850    0.5150 n         1 MOL     -0.000731
    149 C50         4.1670    1.8340    1.8090 c3        1 MOL     -0.190396
    150 C51         4.9270    1.1820    2.9590 c         1 MOL      0.488901
    151 O21         5.1840    1.7650    4.0190 o         1 MOL     -0.557128
    152 C52         2.7260    1.2200    1.7360 c3        1 MOL     -0.018519
    153 C53         1.8410    1.8460    0.5790 c3        1 MOL     -0.024774
    154 C54         0.3820    1.4260    0.7010 c         1 MOL      0.486276
    155 O22        -0.4310    1.9430   -0.0250 o         1 MOL     -0.707687
    156 O23         0.1150    0.3350    1.2520 o         1 MOL     -0.707687
    157 H67         4.5420    0.9080   -0.0670 hn        1 MOL      0.147772
    158 H68         3.9490    2.8720    2.0610 h1        1 MOL      0.111337
    159 H69         2.3490    1.4360    2.7310 hc        1 MOL      0.003667
    160 H70         2.7810    0.1530    1.5520 hc        1 MOL      0.003667
    161 H71         2.2860    1.5980   -0.3800 hc        1 MOL      0.028332
    162 H72         2.0050    2.9180    0.6130 hc        1 MOL      0.028332
    163 N14         5.4000   -0.0110    2.6520 n         1 MOL     -0.071273
    164 C55         6.4280   -0.7840    3.3790 c3        1 MOL     -0.254226
    165 H73         6.3910   -1.8260    3.0610 h1        1 MOL      0.097046
    166 H74         7.4140   -0.3730    3.1610 h1        1 MOL      0.097046
    167 H75         6.2380   -0.7250    4.4500 h1        1 MOL      0.097046
    168 H76         5.1680   -0.2390    1.6930 hn        1 MOL      0.057379
    169 Ca1        -2.2840    0.0660   -0.0120 Ca        1 MOL      1.677361
    170 O24        -1.9220   -0.2130    2.7170 oh        1 MOL     -0.798333
    171 H77        -1.9460   -0.1170    3.6660 ho        1 MOL      0.397427
    172 H78        -1.0320    0.0480    2.4720 ho        1 MOL      0.397427
    173 O25        -4.9000   -0.4540    1.0930 oh        1 MOL     -0.798333
    174 H79        -5.3710    0.3620    1.2670 ho        1 MOL      0.397427
    175 H80        -5.0540   -0.9910    1.8760 ho        1 MOL      0.397427
@<TRIPOS>BOND
     1    1    2 1   
     2    1    4 1   
     3    1    5 1   
     4    1    6 1   
     5    2    3 2   
     6    2    7 1   
     7    7    8 1   
     8    7   15 1   
     9    8    9 1   
    10    8   11 1   
    11    8   16 1   
    12    9   10 2   
    13    9   19 1   
    14   11   12 1   
    15   11   17 1   
    16   11   18 1   
    17   12   13 1   
    18   12   14 1   
    19   19   20 1   
    20   19   24 1   
    21   20   21 1   
    22   20   23 1   
    23   20   25 1   
    24   21   22 2   
    25   21   29 1   
    26   23   26 1   
    27   23   27 1   
    28   23   28 1   
    29   29   30 1   
    30   29   37 1   
    31   30   31 1   
    32   30   33 1   
    33   30   38 1   
    34   31   32 2   
    35   31   41 1   
    36   33   34 1   
    37   33   39 1   
    38   33   40 1   
    39   34   35 1   
    40   34   36 1   
    41   41   42 1   
    42   41   45 1   
    43   42   43 1   
    44   42   46 1   
    45   42   47 1   
    46   43   44 2   
    47   43   48 1   
    48   48   49 1   
    49   48   56 1   
    50   49   50 1   
    51   49   52 1   
    52   49   57 1   
    53   50   51 2   
    54   50   62 1   
    55   52   53 1   
    56   52   58 1   
    57   52   59 1   
    58   53   54 1   
    59   53   55 2   
    60   54   60 1   
    61   54   61 1   
    62   62   63 1   
    63   62   66 1   
    64   63   64 1   
    65   63   67 1   
    66   63   68 1   
    67   64   65 2   
    68   64   69 1   
    69   69   70 1   
    70   69   76 1   
    71   70   71 1   
    72   70   73 1   
    73   70   77 1   
    74   71   72 2   
    75   71   83 1   
    76   73   74 1   
    77   73   75 1   
    78   73   78 1   
    79   74   80 1   
    80   74   81 1   
    81   74   82 1   
    82   75   79 1   
    83   83   84 1   
    84   83   91 1   
    85   84   85 1   
    86   84   87 1   
    87   84   92 1   
    88   85   86 2   
    89   85  102 1   
    90   87   88 1   
    91   87   89 1   
    92   87   93 1   
    93   88   90 1   
    94   88   94 1   
    95   88   95 1   
    96   89   96 1   
    97   89   97 1   
    98   89   98 1   
    99   90   99 1   
   100   90  100 1   
   101   90  101 1   
   102  102  103 1   
   103  102  110 1   
   104  103  104 1   
   105  103  106 1   
   106  103  111 1   
   107  104  105 2   
   108  104  114 1   
   109  106  107 1   
   110  106  112 1   
   111  106  113 1   
   112  107  108 1   
   113  107  109 1   
   114  114  115 1   
   115  114  125 1   
   116  115  116 1   
   117  115  118 1   
   118  115  126 1   
   119  116  117 2   
   120  116  134 1   
   121  118  119 1   
   122  118  127 1   
   123  118  128 1   
   124  119  120 ar  
   125  119  121 ar  
   126  120  122 ar  
   127  120  129 1   
   128  121  123 ar  
   129  121  130 1   
   130  122  124 ar  
   131  122  131 1   
   132  123  124 ar  
   133  123  132 1   
   134  124  133 1   
   135  134  135 1   
   136  134  140 1   
   137  135  136 1   
   138  135  138 1   
   139  135  141 1   
   140  136  137 2   
   141  136  148 1   
   142  138  139 1   
   143  138  142 1   
   144  138  143 1   
   145  139  140 1   
   146  139  144 1   
   147  139  145 1   
   148  140  146 1   
   149  140  147 1   
   150  148  149 1   
   151  148  157 1   
   152  149  150 1   
   153  149  152 1   
   154  149  158 1   
   155  150  151 2   
   156  150  163 1   
   157  152  153 1   
   158  152  159 1   
   159  152  160 1   
   160  153  154 1   
   161  153  161 1   
   162  153  162 1   
   163  154  155 1   
   164  154  156 1   
   165  163  164 1   
   166  163  168 1   
   167  164  165 1   
   168  164  166 1   
   169  164  167 1   
   170  170  171 1   
   171  170  172 1   
   172  173  174 1   
   173  173  175 1   
@<TRIPOS>SUBSTRUCTURE
     1 MOL         1 TEMP              0 ****  ****    0 ROOT
