@<TRIPOS>MOLECULE
MOL
  189   185     1     0     0
SMALL
resp


@<TRIPOS>ATOM
      1 C1         -0.8900    0.9630    6.7200 c3        1 MOL     -0.363385
      2 C2         -1.0180    1.0840    5.1690 c         1 MOL      0.820994
      3 O1         -0.1430    1.6310    4.5950 o         1 MOL     -0.609395
      4 H1         -1.8820    0.8460    7.1580 hc        1 MOL      0.082941
      5 H2         -0.2790    0.0950    6.9680 hc        1 MOL      0.082941
      6 H3         -0.4220    1.8640    7.1190 hc        1 MOL      0.082941
      7 N1         -2.1630    0.6910    4.5770 n         1 MOL     -0.686007
      8 C3         -2.4140    0.8350    3.1420 c3        1 MOL      0.112400
      9 C4         -2.6100    2.3570    2.8260 c         1 MOL      0.641247
     10 O2         -3.4100    2.9960    3.5030 o         1 MOL     -0.587524
     11 C5         -3.6040   -0.0020    2.7340 c3        1 MOL     -0.215944
     12 C6         -4.0360    0.0590    1.2880 c         1 MOL      0.891251
     13 O3         -3.2730    0.4770    0.3970 o         1 MOL     -0.765151
     14 O4         -5.1400   -0.4660    1.1100 o         1 MOL     -0.765151
     15 H4         -2.8900    0.3430    5.1900 hn        1 MOL      0.336551
     16 H5         -1.5380    0.5130    2.5670 h1        1 MOL      0.039429
     17 H6         -4.4460    0.3340    3.3300 hc        1 MOL      0.056026
     18 H7         -3.4050   -1.0250    3.0390 hc        1 MOL      0.056026
     19 N2         -1.9120    2.8420    1.8280 n         1 MOL     -0.445720
     20 C7         -2.1010    4.1880    1.2760 c3        1 MOL      0.014428
     21 C8         -3.4020    4.5110    0.5210 c         1 MOL      0.473601
     22 O5         -3.8110    5.6420    0.4550 o         1 MOL     -0.572455
     23 C9         -0.8690    4.6080    0.4730 c3        1 MOL      0.157566
     24 C10        -0.6550    6.1240    0.4870 c3        1 MOL     -0.128553
     25 C11         0.8100    6.5210    0.2280 c3        1 MOL      0.095263
     26 C12         1.0030    8.0870    0.2620 c3        1 MOL     -0.125599
     27 N3          2.2310    8.4720   -0.5160 n4        1 MOL     -0.172094
     28 H8         -1.3190    2.2060    1.3190 hn        1 MOL      0.239598
     29 H9         -2.2130    4.7920    2.1810 h1        1 MOL      0.061518
     30 H10        -1.0630    4.2460   -0.5430 hc        1 MOL     -0.015865
     31 H11        -0.0680    3.9690    0.8490 hc        1 MOL     -0.015865
     32 H12        -0.9680    6.5110    1.4570 hc        1 MOL      0.056714
     33 H13        -1.2960    6.5740   -0.2710 hc        1 MOL      0.056714
     34 H14         1.0920    6.1070   -0.7360 hc        1 MOL     -0.008795
     35 H15         1.4740    6.0600    0.9540 hc        1 MOL     -0.008795
     36 H16         1.1180    8.3610    1.3140 hx        1 MOL      0.126636
     37 H17         0.1080    8.4040   -0.2680 hx        1 MOL      0.126636
     38 H18         2.2400    7.9880   -1.3980 hn        1 MOL      0.278373
     39 H19         2.3560    9.4540   -0.6650 hn        1 MOL      0.278373
     40 H20         3.0430    8.1450   -0.0050 hn        1 MOL      0.278373
     41 N4         -3.9790    3.4130   -0.0420 n         1 MOL     -0.015410
     42 C13        -4.9320    3.5490   -1.1950 c3        1 MOL     -0.125640
     43 C14        -6.3830    3.1040   -0.8830 c         1 MOL      0.393872
     44 O6         -7.3060    3.2650   -1.6630 o         1 MOL     -0.484239
     45 C15        -4.4980    2.7880   -2.4410 c3        1 MOL      0.088171
     46 C16        -3.0140    2.8940   -2.7590 c         1 MOL      0.617144
     47 O7         -2.2060    2.1820   -2.1010 o         1 MOL     -0.703540
     48 O8         -2.5990    3.7740   -3.5580 o         1 MOL     -0.703540
     49 H21        -3.4800    2.5500    0.0310 hn        1 MOL      0.023733
     50 H22        -4.8920    4.5800   -1.5510 h1        1 MOL      0.095900
     51 H23        -5.0960    2.9870   -3.3270 hc        1 MOL     -0.022644
     52 H24        -4.7050    1.7560   -2.1280 hc        1 MOL     -0.022644
     53 N5         -6.4730    2.4440    0.2820 n         1 MOL     -0.304623
     54 C17        -7.5400    1.5530    0.6710 c3        1 MOL      0.032560
     55 C18        -7.7630    0.3200   -0.2530 c         1 MOL      0.379105
     56 O9         -8.9290   -0.0220   -0.4320 o         1 MOL     -0.525072
     57 H25        -5.6690    2.4380    0.8880 hn        1 MOL      0.154880
     58 H26        -8.5080    2.0140    0.8480 h1        1 MOL      0.062017
     59 H27        -7.2880    1.1470    1.6520 h1        1 MOL      0.062017
     60 N6         -6.7120   -0.1490   -1.0290 n         1 MOL     -0.202051
     61 C19        -6.8130   -1.2860   -1.9870 c3        1 MOL     -0.003466
     62 C20        -6.8290   -2.6600   -1.3020 c         1 MOL      0.430220
     63 O10        -7.2460   -3.6850   -1.8600 o         1 MOL     -0.558589
     64 C21        -5.7300   -1.1680   -3.1030 c3        1 MOL     -0.335281
     65 C22        -4.2940   -1.2290   -2.5940 c         1 MOL      0.721204
     66 O11        -4.0060   -2.0930   -1.7000 o         1 MOL     -0.721919
     67 O12        -3.3840   -0.5470   -3.1610 o         1 MOL     -0.721919
     68 H28        -5.7810    0.0400   -0.6880 hn        1 MOL      0.331480
     69 H29        -7.8240   -1.2030   -2.3870 h1        1 MOL      0.094892
     70 H30        -5.9220   -0.2280   -3.6120 hc        1 MOL      0.104354
     71 H31        -6.0130   -1.9750   -3.7750 hc        1 MOL      0.104354
     72 N7         -6.2460   -2.6970   -0.0890 n         1 MOL     -0.210454
     73 C23        -6.2370   -3.8730    0.8110 c3        1 MOL     -0.105497
     74 C24        -4.9140   -4.6470    0.8680 c         1 MOL      0.494144
     75 O13        -4.9000   -5.7070    1.3860 o         1 MOL     -0.556557
     76 H32        -5.8860   -1.7960    0.1830 hn        1 MOL      0.191014
     77 H33        -7.0810   -4.5080    0.5390 h1        1 MOL      0.091930
     78 H34        -6.5290   -3.6670    1.8450 h1        1 MOL      0.091930
     79 N8         -3.7830   -4.0810    0.4580 n         1 MOL     -0.157226
     80 C25        -2.4220   -4.6830    0.5760 c3        1 MOL     -0.302202
     81 C26        -1.3700   -3.6200    0.5120 c         1 MOL      0.706133
     82 O14        -1.5700   -2.4380    0.1440 o         1 MOL     -0.689781
     83 C27        -2.2030   -5.6030   -0.6600 c3        1 MOL      0.466294
     84 C28        -2.7880   -7.0170   -0.5340 c3        1 MOL     -0.437936
     85 O15        -2.5440   -5.0410   -1.9110 oh        1 MOL     -0.624725
     86 H35        -3.8760   -3.1790    0.0200 hn        1 MOL      0.198028
     87 H36        -2.4210   -5.2930    1.4740 h1        1 MOL      0.143356
     88 H37        -1.1360   -5.7300   -0.8130 h1        1 MOL      0.009708
     89 H38        -3.4540   -4.7720   -1.7670 ho        1 MOL      0.414330
     90 H39        -2.8070   -7.3570    0.4950 hc        1 MOL      0.113858
     91 H40        -3.7810   -6.9240   -0.9660 hc        1 MOL      0.113858
     92 H41        -2.1850   -7.7190   -1.1180 hc        1 MOL      0.113858
     93 N9         -0.1520   -3.9890    0.9190 n         1 MOL     -0.537384
     94 C29         1.0170   -3.1820    1.1490 c3        1 MOL      0.063478
     95 C30         2.0810   -3.4600    0.0340 c         1 MOL      0.550457
     96 O16         2.4080   -4.6320   -0.1980 o         1 MOL     -0.573116
     97 C31         1.6250   -3.4710    2.5750 c3        1 MOL     -0.030622
     98 C32         0.6390   -2.9460    3.5910 c3        1 MOL      0.159465
     99 C33         2.9740   -2.8220    2.7780 c3        1 MOL     -0.073019
    100 C34         1.0580   -3.0670    5.0760 c3        1 MOL     -0.373736
    101 H42        -0.1020   -4.9740    1.1720 hn        1 MOL      0.258146
    102 H43         0.6570   -2.1580    1.1210 h1        1 MOL      0.094799
    103 H44         1.7630   -4.5370    2.7550 hc        1 MOL      0.059002
    104 H45        -0.3310   -3.4450    3.6010 hc        1 MOL      0.001419
    105 H46         0.4410   -1.8850    3.5190 hc        1 MOL      0.001419
    106 H47         3.7210   -3.2300    2.0940 hc        1 MOL      0.004901
    107 H48         3.0680   -1.7590    2.5430 hc        1 MOL      0.004901
    108 H49         3.3900   -3.0840    3.7580 hc        1 MOL      0.004901
    109 H50         0.1610   -3.0770    5.6920 hc        1 MOL      0.093461
    110 H51         1.6710   -3.9680    5.1240 hc        1 MOL      0.093461
    111 H52         1.6610   -2.1740    5.2440 hc        1 MOL      0.093461
    112 N10         2.6960   -2.4710   -0.4930 n         1 MOL     -0.226087
    113 C35         3.8360   -2.5120   -1.4600 c3        1 MOL      0.006246
    114 C36         5.1920   -2.2750   -0.7080 c         1 MOL      0.486006
    115 O17         5.2200   -1.9350    0.4730 o         1 MOL     -0.360018
    116 C37         3.7350   -1.5880   -2.7350 c3        1 MOL      0.217094
    117 C38         2.7760   -2.0510   -3.8250 c3        1 MOL     -0.039381
    118 O18         3.3210   -0.3240   -2.2860 oh        1 MOL     -0.606355
    119 H53         2.3930   -1.5300   -0.2560 hn        1 MOL      0.111715
    120 H54         3.9800   -3.5440   -1.7940 h1        1 MOL      0.071668
    121 H55         4.6760   -1.5260   -3.2670 h1        1 MOL      0.032355
    122 H56         2.4320   -0.3550   -1.9160 ho        1 MOL      0.301739
    123 H57         1.8970   -2.5580   -3.4350 hc        1 MOL      0.011990
    124 H58         2.3800   -1.2370   -4.4230 hc        1 MOL      0.011990
    125 H59         3.3130   -2.6950   -4.5140 hc        1 MOL      0.011990
    126 N11         6.3390   -2.4300   -1.4240 n         1 MOL     -0.407771
    127 C39         7.7010   -2.0710   -0.8940 c3        1 MOL     -0.136892
    128 C40         7.8570   -0.6850   -0.2440 c         1 MOL      0.310387
    129 O19         8.3270   -0.5250    0.9000 o         1 MOL     -0.426750
    130 C41         8.6120   -2.2930   -2.1040 c3        1 MOL      0.542912
    131 C42        10.0250   -2.1210   -1.7650 c3        1 MOL     -0.543248
    132 O20         8.4410   -3.5840   -2.6140 oh        1 MOL     -0.627761
    133 H60         6.2680   -2.8430   -2.3340 hn        1 MOL      0.226635
    134 H61         7.9930   -2.7830   -0.1200 h1        1 MOL      0.176647
    135 H62         8.4030   -1.6580   -2.9740 h1        1 MOL     -0.051224
    136 H63         8.4430   -3.6080   -3.5700 ho        1 MOL      0.404824
    137 H64        10.5290   -2.0820   -2.7310 hc        1 MOL      0.147370
    138 H65        10.2300   -1.1450   -1.3200 hc        1 MOL      0.147370
    139 H66        10.2890   -2.9820   -1.1480 hc        1 MOL      0.147370
    140 N12         7.3390    0.3340   -0.9580 n         1 MOL     -0.289313
    141 C43         7.2980    1.8080   -0.5880 c3        1 MOL      0.050650
    142 C44         6.4110    1.9470    0.7010 c         1 MOL      0.311518
    143 O21         6.7750    2.7990    1.5080 o         1 MOL     -0.479071
    144 C45         6.7690    2.7460   -1.6790 c3        1 MOL     -0.169374
    145 C46         5.2390    2.6940   -1.9970 c3        1 MOL      0.188675
    146 C47         4.9820    3.5080   -3.2590 c3        1 MOL     -0.012367
    147 C48         3.4540    3.6390   -3.3500 c3        1 MOL      0.049682
    148 N13         2.9050    2.3270   -3.7120 n4        1 MOL     -0.231181
    149 H67         6.9030    0.1700   -1.8610 hn        1 MOL      0.170925
    150 H68         8.3290    2.0880   -0.3710 h1        1 MOL      0.123947
    151 H69         7.2880    2.5610   -2.6200 hc        1 MOL      0.049745
    152 H70         6.9500    3.7880   -1.4040 hc        1 MOL      0.049745
    153 H71         4.5660    3.0610   -1.2200 hc        1 MOL     -0.044327
    154 H72         4.9280    1.6800   -2.2460 hc        1 MOL     -0.044327
    155 H73         5.3400    3.0030   -4.1590 hc        1 MOL      0.031400
    156 H74         5.4040    4.5120   -3.2950 hc        1 MOL      0.031400
    157 H75         3.2470    4.4070   -4.0900 hx        1 MOL      0.048285
    158 H76         3.0690    3.9770   -2.3860 hx        1 MOL      0.048285
    159 H77         2.9450    1.6640   -2.9440 hn        1 MOL      0.272875
    160 H78         1.9040    2.4340   -3.7480 hn        1 MOL      0.272875
    161 H79         3.2150    1.8570   -4.5380 hn        1 MOL      0.272875
    162 N14         5.2390    1.2780    0.7920 n         1 MOL     -0.004333
    163 C49         4.3630    1.3490    1.9260 c3        1 MOL     -0.386360
    164 C50         4.9190    0.4910    3.0830 c         1 MOL      0.572711
    165 O22         4.7040    0.7950    4.2560 o         1 MOL     -0.540317
    166 C51         2.9370    0.9140    1.5100 c3        1 MOL      0.311366
    167 C52         2.1990    1.6990    0.4500 c3        1 MOL     -0.212332
    168 C53         1.0000    0.8960    0.0830 c         1 MOL      0.577071
    169 O23         1.0530   -0.0240   -0.6710 o         1 MOL     -0.655080
    170 O24        -0.1060    1.1320    0.5550 o         1 MOL     -0.655080
    171 H80         4.9850    0.6850    0.0040 hn        1 MOL      0.132381
    172 H81         4.2760    2.3630    2.3210 h1        1 MOL      0.145540
    173 H82         2.3190    1.0200    2.4080 hc        1 MOL      0.021103
    174 H83         2.8780   -0.1300    1.2230 hc        1 MOL      0.021103
    175 H84         2.8770    1.7490   -0.4020 hc        1 MOL      0.039076
    176 H85         1.9250    2.6990    0.7830 hc        1 MOL      0.039076
    177 N15         5.7170   -0.6070    2.7980 n         1 MOL     -0.127155
    178 C54         6.4180   -1.3940    3.8780 c3        1 MOL     -0.352599
    179 H86         7.2980   -0.8460    4.2130 h1        1 MOL      0.135429
    180 H87         5.7400   -1.5410    4.7200 h1        1 MOL      0.135429
    181 H88         6.7220   -2.3630    3.4830 h1        1 MOL      0.135429
    182 H89         5.9370   -0.8160    1.8410 hn        1 MOL      0.131064
    183 Ca1        -1.5810   -0.2370   -1.3590 Ca        1 MOL      1.768889
    184 O25        -0.3270    0.2630   -3.7420 oh        1 MOL     -0.832667
    185 H90         0.2660    0.9220   -4.1190 ho        1 MOL      0.406038
    186 H91        -0.3840   -0.4110   -4.4000 ho        1 MOL      0.406038
    187 O26        -0.9080   -2.7190   -2.6990 oh        1 MOL     -0.832667
    188 H92        -1.0190   -2.8460   -3.6410 ho        1 MOL      0.406038
    189 H93        -1.3720   -3.4530   -2.2970 ho        1 MOL      0.406038
@<TRIPOS>BOND
     1    1    2 1   
     2    1    4 1   
     3    1    5 1   
     4    1    6 1   
     5    2    3 2   
     6    2    7 1   
     7    7    8 1   
     8    7   15 1   
     9    8    9 1   
    10    8   11 1   
    11    8   16 1   
    12    9   10 2   
    13    9   19 1   
    14   11   12 1   
    15   11   17 1   
    16   11   18 1   
    17   12   13 1   
    18   12   14 1   
    19   19   20 1   
    20   19   28 1   
    21   20   21 1   
    22   20   23 1   
    23   20   29 1   
    24   21   22 2   
    25   21   41 1   
    26   23   24 1   
    27   23   30 1   
    28   23   31 1   
    29   24   25 1   
    30   24   32 1   
    31   24   33 1   
    32   25   26 1   
    33   25   34 1   
    34   25   35 1   
    35   26   27 1   
    36   26   36 1   
    37   26   37 1   
    38   27   38 1   
    39   27   39 1   
    40   27   40 1   
    41   41   42 1   
    42   41   49 1   
    43   42   43 1   
    44   42   45 1   
    45   42   50 1   
    46   43   44 2   
    47   43   53 1   
    48   45   46 1   
    49   45   51 1   
    50   45   52 1   
    51   46   47 1   
    52   46   48 1   
    53   53   54 1   
    54   53   57 1   
    55   54   55 1   
    56   54   58 1   
    57   54   59 1   
    58   55   56 2   
    59   55   60 1   
    60   60   61 1   
    61   60   68 1   
    62   61   62 1   
    63   61   64 1   
    64   61   69 1   
    65   62   63 2   
    66   62   72 1   
    67   64   65 1   
    68   64   70 1   
    69   64   71 1   
    70   65   66 1   
    71   65   67 1   
    72   72   73 1   
    73   72   76 1   
    74   73   74 1   
    75   73   77 1   
    76   73   78 1   
    77   74   75 2   
    78   74   79 1   
    79   79   80 1   
    80   79   86 1   
    81   80   81 1   
    82   80   83 1   
    83   80   87 1   
    84   81   82 2   
    85   81   93 1   
    86   83   84 1   
    87   83   85 1   
    88   83   88 1   
    89   84   90 1   
    90   84   91 1   
    91   84   92 1   
    92   85   89 1   
    93   93   94 1   
    94   93  101 1   
    95   94   95 1   
    96   94   97 1   
    97   94  102 1   
    98   95   96 2   
    99   95  112 1   
   100   97   98 1   
   101   97   99 1   
   102   97  103 1   
   103   98  100 1   
   104   98  104 1   
   105   98  105 1   
   106   99  106 1   
   107   99  107 1   
   108   99  108 1   
   109  100  109 1   
   110  100  110 1   
   111  100  111 1   
   112  112  113 1   
   113  112  119 1   
   114  113  114 1   
   115  113  116 1   
   116  113  120 1   
   117  114  115 2   
   118  114  126 1   
   119  116  117 1   
   120  116  118 1   
   121  116  121 1   
   122  117  123 1   
   123  117  124 1   
   124  117  125 1   
   125  118  122 1   
   126  126  127 1   
   127  126  133 1   
   128  127  128 1   
   129  127  130 1   
   130  127  134 1   
   131  128  129 2   
   132  128  140 1   
   133  130  131 1   
   134  130  132 1   
   135  130  135 1   
   136  131  137 1   
   137  131  138 1   
   138  131  139 1   
   139  132  136 1   
   140  140  141 1   
   141  140  149 1   
   142  141  142 1   
   143  141  144 1   
   144  141  150 1   
   145  142  143 2   
   146  142  162 1   
   147  144  145 1   
   148  144  151 1   
   149  144  152 1   
   150  145  146 1   
   151  145  153 1   
   152  145  154 1   
   153  146  147 1   
   154  146  155 1   
   155  146  156 1   
   156  147  148 1   
   157  147  157 1   
   158  147  158 1   
   159  148  159 1   
   160  148  160 1   
   161  148  161 1   
   162  162  163 1   
   163  162  171 1   
   164  163  164 1   
   165  163  166 1   
   166  163  172 1   
   167  164  165 2   
   168  164  177 1   
   169  166  167 1   
   170  166  173 1   
   171  166  174 1   
   172  167  168 1   
   173  167  175 1   
   174  167  176 1   
   175  168  169 1   
   176  168  170 1   
   177  177  178 1   
   178  177  182 1   
   179  178  179 1   
   180  178  180 1   
   181  178  181 1   
   182  184  185 1   
   183  184  186 1   
   184  187  188 1   
   185  187  189 1   
@<TRIPOS>SUBSTRUCTURE
     1 MOL         1 TEMP              0 ****  ****    0 ROOT
