@<TRIPOS>MOLECULE
MOL
  175   173     1     0     0
SMALL
resp


@<TRIPOS>ATOM
      1 C1          0.3830    4.0430    5.5890 c3        1 MOL     -0.384279
      2 C2         -0.2410    4.0040    4.1810 c         1 MOL      0.769185
      3 O1          0.5040    4.0900    3.2180 o         1 MOL     -0.557892
      4 H1         -0.2640    4.6120    6.2570 hc        1 MOL      0.094746
      5 H2          0.4900    3.0260    5.9680 hc        1 MOL      0.094746
      6 H3          1.3620    4.5180    5.5410 hc        1 MOL      0.094746
      7 N1         -1.5670    3.7580    4.0160 n         1 MOL     -0.707920
      8 C3         -2.1380    3.4710    2.7510 c3        1 MOL      0.271327
      9 C4         -2.3100    4.7200    1.8320 c         1 MOL      0.521725
     10 O2         -2.3970    5.8980    2.3160 o         1 MOL     -0.575199
     11 C5         -3.6040    2.9120    2.9350 c3        1 MOL     -0.401575
     12 C6         -4.2730    2.5210    1.5590 c         1 MOL      0.683821
     13 O3         -3.7310    1.7190    0.7200 o         1 MOL     -0.626178
     14 O4         -5.4400    2.9940    1.2790 o         1 MOL     -0.626178
     15 H4         -2.1600    3.7360    4.8350 hn        1 MOL      0.345075
     16 H5         -1.5590    2.7620    2.1640 h1        1 MOL     -0.000792
     17 H6         -4.1910    3.6620    3.4690 hc        1 MOL      0.087086
     18 H7         -3.5470    1.9710    3.5000 hc        1 MOL      0.087086
     19 N2         -2.1480    4.5040    0.5290 n         1 MOL     -0.412665
     20 C7         -2.4740    5.4470   -0.5480 c3        1 MOL      0.403676
     21 C8         -3.4350    4.9710   -1.6770 c         1 MOL      0.346134
     22 O5         -3.6990    5.6750   -2.6920 o         1 MOL     -0.551459
     23 C9         -1.1650    6.1810   -1.0400 c3        1 MOL     -0.304550
     24 H8         -1.8320    3.5720    0.2730 hn        1 MOL      0.254616
     25 H9         -3.0780    6.1830   -0.0160 h1        1 MOL     -0.019472
     26 H10        -0.6160    6.5020   -0.1640 hc        1 MOL      0.066390
     27 H11        -0.5270    5.5290   -1.6370 hc        1 MOL      0.066390
     28 H12        -1.5110    7.0410   -1.6330 hc        1 MOL      0.066390
     29 N3         -3.9820    3.7430   -1.5500 n         1 MOL     -0.157155
     30 C10        -4.7910    3.1860   -2.7310 c3        1 MOL     -0.022188
     31 C11        -5.9780    2.3310   -2.4300 c         1 MOL      0.416322
     32 O6         -6.8840    2.1820   -3.2610 o         1 MOL     -0.577468
     33 C12        -3.9360    2.4160   -3.7360 c3        1 MOL     -0.027886
     34 C13        -3.0590    1.2990   -3.2390 c         1 MOL      0.695671
     35 O7         -3.3430    0.7480   -2.1480 o         1 MOL     -0.712487
     36 O8         -2.1260    0.8920   -3.9390 o         1 MOL     -0.712487
     37 H13        -3.8440    3.1570   -0.7430 hn        1 MOL      0.029134
     38 H14        -5.1720    4.0560   -3.2600 h1        1 MOL      0.086893
     39 H15        -3.2310    3.1430   -4.1510 hc        1 MOL      0.009025
     40 H16        -4.5790    2.0490   -4.5360 hc        1 MOL      0.009025
     41 N4         -6.2140    1.8280   -1.2180 n         1 MOL     -0.015829
     42 C14        -7.4480    1.1810   -0.8640 c3        1 MOL     -0.254870
     43 C15        -7.4960   -0.3680   -1.1630 c         1 MOL      0.495608
     44 O9         -8.5670   -0.9600   -0.8940 o         1 MOL     -0.583066
     45 H17        -5.6720    2.1430   -0.4250 hn        1 MOL      0.107595
     46 H18        -8.3400    1.6680   -1.2610 h1        1 MOL      0.107560
     47 H19        -7.4450    1.2710    0.2250 h1        1 MOL      0.107560
     48 N5         -6.3360   -0.9480   -1.5360 n         1 MOL     -0.211480
     49 C16        -6.1730   -2.3340   -1.9410 c3        1 MOL     -0.058907
     50 C17        -6.1570   -3.4010   -0.8590 c         1 MOL      0.504479
     51 O10        -6.2980   -4.5840   -1.1130 o         1 MOL     -0.539270
     52 C18        -5.0590   -2.4250   -2.9600 c3        1 MOL     -0.122485
     53 C19        -3.6360   -2.3720   -2.3570 c         1 MOL      0.754387
     54 N6         -2.6320   -2.3090   -3.1790 n         1 MOL     -0.818434
     55 O11        -3.4800   -2.1950   -1.1730 o         1 MOL     -0.602831
     56 H20        -5.5460   -0.3390   -1.7420 hn        1 MOL      0.173490
     57 H21        -7.0680   -2.5490   -2.5400 h1        1 MOL      0.094519
     58 H22        -5.2070   -1.6200   -3.6720 hc        1 MOL      0.045565
     59 H23        -5.0800   -3.3430   -3.5510 hc        1 MOL      0.045565
     60 H24        -2.6350   -2.2680   -4.1900 hn        1 MOL      0.376453
     61 H25        -1.7540   -2.0030   -2.7850 hn        1 MOL      0.376453
     62 N7         -6.1040   -3.0000    0.4440 n         1 MOL     -0.307994
     63 C20        -6.0260   -3.8440    1.5790 c3        1 MOL     -0.061017
     64 C21        -4.6790   -4.3490    1.9600 c         1 MOL      0.434390
     65 O12        -4.6140   -5.2060    2.7860 o         1 MOL     -0.577900
     66 H26        -5.9250   -2.0310    0.6640 hn        1 MOL      0.218278
     67 H27        -6.7970   -4.6090    1.5490 h1        1 MOL      0.069371
     68 H28        -6.3560   -3.2120    2.4080 h1        1 MOL      0.069371
     69 N8         -3.6510   -3.9030    1.2850 n         1 MOL     -0.065828
     70 C22        -2.2690   -4.4640    1.5220 c3        1 MOL     -0.051148
     71 C23        -1.2980   -3.3190    1.7030 c         1 MOL      0.254257
     72 O13        -1.4530   -2.3090    1.1040 o         1 MOL     -0.433706
     73 C24        -1.7070   -5.3330    0.3720 c3        1 MOL      0.499122
     74 C25        -2.4680   -6.6410    0.2950 c3        1 MOL     -0.632760
     75 O14        -1.9430   -4.6910   -0.8690 oh        1 MOL     -0.557166
     76 H29        -3.7840   -3.1660    0.6100 hn        1 MOL      0.092551
     77 H30        -2.1730   -5.0510    2.4420 h1        1 MOL      0.049763
     78 H31        -0.6480   -5.5000    0.5740 h1        1 MOL     -0.037684
     79 H32        -1.3810   -3.9020   -0.8800 ho        1 MOL      0.311726
     80 H33        -3.5140   -6.3960    0.0880 hc        1 MOL      0.167536
     81 H34        -2.0620   -7.2020   -0.5430 hc        1 MOL      0.167536
     82 H35        -2.4550   -7.2240    1.2080 hc        1 MOL      0.167536
     83 N9         -0.1260   -3.5260    2.4240 n         1 MOL     -0.207177
     84 C26         0.9370   -2.5520    2.4260 c3        1 MOL     -0.265866
     85 C27         1.7570   -2.8750    1.1960 c         1 MOL      0.480494
     86 O15         2.4730   -3.8700    1.1290 o         1 MOL     -0.599002
     87 C28         1.8430   -2.5750    3.7330 c3        1 MOL      0.326597
     88 C29         0.9520   -2.1610    4.9020 c3        1 MOL      0.104512
     89 C30         3.0430   -1.6570    3.6480 c3        1 MOL     -0.534286
     90 C31         1.6480   -2.5320    6.2460 c3        1 MOL     -0.128937
     91 H36         0.0260   -4.4210    2.8730 hn        1 MOL      0.232139
     92 H37         0.6050   -1.5210    2.3360 h1        1 MOL      0.106456
     93 H38         2.1220   -3.6060    3.9160 hc        1 MOL     -0.016719
     94 H39        -0.0060   -2.6810    4.7940 hc        1 MOL     -0.040751
     95 H40         0.7760   -1.0930    4.8040 hc        1 MOL     -0.040751
     96 H41         3.4020   -1.2220    4.5720 hc        1 MOL      0.125912
     97 H42         3.8870   -2.1890    3.2010 hc        1 MOL      0.125912
     98 H43         2.8330   -0.7260    3.1160 hc        1 MOL      0.125912
     99 H44         2.1330   -3.5050    6.2210 hc        1 MOL      0.017964
    100 H45         2.3280   -1.7470    6.5880 hc        1 MOL      0.017964
    101 H46         0.8380   -2.5860    6.9830 hc        1 MOL      0.017964
    102 N10         1.7350   -1.9720    0.2450 n         1 MOL     -0.059567
    103 C32         2.5700   -2.1750   -0.9930 c3        1 MOL      0.006768
    104 C33         3.8890   -1.5370   -0.7600 c         1 MOL      0.408408
    105 O16         4.0560   -0.5540   -0.0160 o         1 MOL     -0.356482
    106 C34         1.8840   -1.4530   -2.1550 c3        1 MOL     -0.196737
    107 C35         0.4760   -1.9180   -2.4130 c         1 MOL      0.646314
    108 O17        -0.5010   -1.5490   -1.6280 o         1 MOL     -0.622012
    109 O18         0.4110   -2.6520   -3.4350 o         1 MOL     -0.622012
    110 H47         1.1960   -1.1180    0.2270 hn        1 MOL      0.115320
    111 H48         2.7400   -3.2520   -1.0610 h1        1 MOL      0.064456
    112 H49         2.4920   -1.6770   -3.0340 hc        1 MOL      0.056572
    113 H50         1.9310   -0.4020   -1.8750 hc        1 MOL      0.056572
    114 N11         4.9440   -2.0390   -1.4210 n         1 MOL     -0.544856
    115 C36         6.2920   -1.5730   -1.1820 c3        1 MOL      0.262434
    116 C37         6.5340   -0.0040   -1.1190 c         1 MOL      0.519549
    117 O19         7.1610    0.3740   -0.1840 o         1 MOL     -0.490572
    118 C38         7.2860   -2.2370   -2.1390 c3        1 MOL     -0.319582
    119 C39         8.6520   -1.8600   -1.8060 ca        1 MOL      0.193717
    120 C40         9.2450   -2.1710   -0.6100 ca        1 MOL     -0.210723
    121 C41         9.4220   -1.2020   -2.7770 ca        1 MOL     -0.210723
    122 C42        10.6230   -1.9800   -0.4270 ca        1 MOL     -0.076685
    123 C43        10.8080   -0.8640   -2.5340 ca        1 MOL     -0.076685
    124 C44        11.4130   -1.2730   -1.3580 ca        1 MOL     -0.161118
    125 H51         4.7400   -2.8190   -2.0200 hn        1 MOL      0.315433
    126 H52         6.4700   -1.9410   -0.1690 h1        1 MOL      0.082032
    127 H53         7.1330   -2.1130   -3.2110 hc        1 MOL      0.088868
    128 H54         7.1560   -3.3140   -2.0340 hc        1 MOL      0.088868
    129 H55         8.7190   -2.7200    0.1520 ha        1 MOL      0.112461
    130 H56         8.8680   -0.9060   -3.6510 ha        1 MOL      0.112461
    131 H57        11.1150   -2.2770    0.4900 ha        1 MOL      0.100584
    132 H58        11.4190   -0.2900   -3.2220 ha        1 MOL      0.100584
    133 H59        12.4280   -0.9700   -1.1530 ha        1 MOL      0.120135
    134 N12         6.0070    0.7700   -2.0510 n         1 MOL     -0.215852
    135 C45         6.2090    2.2020   -2.0250 c3        1 MOL     -0.027240
    136 C46         5.6910    2.7730   -0.7530 c         1 MOL      0.325489
    137 O20         6.1650    3.8750   -0.3010 o         1 MOL     -0.512879
    138 C47         5.4220    2.6930   -3.2410 c3        1 MOL     -0.045983
    139 C48         5.4210    1.4870   -4.1860 c3        1 MOL     -0.136377
    140 C49         5.0960    0.4310   -3.1340 c3        1 MOL      0.090074
    141 H60         7.2950    2.3430   -2.0680 h1        1 MOL      0.094624
    142 H61         4.3800    2.9900   -3.0910 hc        1 MOL      0.066994
    143 H62         5.8910    3.5620   -3.6920 hc        1 MOL      0.066994
    144 H63         4.6880    1.3380   -4.9810 hc        1 MOL      0.047336
    145 H64         6.3880    1.1790   -4.5710 hc        1 MOL      0.047336
    146 H65         4.0780    0.5120   -2.7720 h1        1 MOL      0.044772
    147 H66         5.2880   -0.5820   -3.4850 h1        1 MOL      0.044772
    148 N13         4.6510    2.1500   -0.0940 n         1 MOL     -0.083151
    149 C50         3.9760    2.5590    1.1300 c3        1 MOL     -0.359865
    150 C51         4.8270    2.1470    2.3390 c         1 MOL      0.518456
    151 O21         4.7720    2.7680    3.4240 o         1 MOL     -0.574970
    152 C52         2.5800    1.9650    1.2030 c3        1 MOL      0.190056
    153 C53         1.7370    2.2530   -0.0520 c3        1 MOL     -0.168613
    154 C54         0.3910    1.6680    0.0320 c         1 MOL      0.605011
    155 O22        -0.6220    2.2440   -0.4250 o         1 MOL     -0.677929
    156 O23         0.3450    0.5600    0.4850 o         1 MOL     -0.677929
    157 H67         4.3950    1.2630   -0.4880 hn        1 MOL      0.033135
    158 H68         3.9880    3.6490    1.1340 h1        1 MOL      0.169565
    159 H69         2.0900    2.3490    2.1000 hc        1 MOL      0.018639
    160 H70         2.6490    0.8750    1.2380 hc        1 MOL      0.018639
    161 H71         2.1590    1.9050   -0.9900 hc        1 MOL      0.080240
    162 H72         1.5400    3.3240   -0.1380 hc        1 MOL      0.080240
    163 N14         5.5370    1.0400    2.2500 n         1 MOL     -0.017511
    164 C55         6.3030    0.4720    3.3090 c3        1 MOL     -0.198750
    165 H73         6.9000   -0.3530    2.9220 h1        1 MOL      0.071005
    166 H74         6.9620    1.2310    3.7290 h1        1 MOL      0.071005
    167 H75         5.6330    0.1030    4.0850 h1        1 MOL      0.071005
    168 H76         5.5670    0.5150    1.3790 hn        1 MOL      0.060648
    169 Ca1        -2.0170   -0.1510   -0.1410 Ca        1 MOL      1.641396
    170 O24        -4.2680   -0.9140    1.2280 oh        1 MOL     -0.742789
    171 H77        -4.5500   -0.0370    1.4830 ho        1 MOL      0.373350
    172 H78        -4.3790   -1.4380    2.0240 ho        1 MOL      0.373350
    173 O25        -1.4460    0.4370    2.6030 oh        1 MOL     -0.742789
    174 H79        -1.6020    0.6080    3.5290 ho        1 MOL      0.373350
    175 H80        -0.5900    0.8360    2.4240 ho        1 MOL      0.373350
@<TRIPOS>BOND
     1    1    2 1   
     2    1    4 1   
     3    1    5 1   
     4    1    6 1   
     5    2    3 2   
     6    2    7 1   
     7    7    8 1   
     8    7   15 1   
     9    8    9 1   
    10    8   11 1   
    11    8   16 1   
    12    9   10 2   
    13    9   19 1   
    14   11   12 1   
    15   11   17 1   
    16   11   18 1   
    17   12   13 1   
    18   12   14 1   
    19   19   20 1   
    20   19   24 1   
    21   20   21 1   
    22   20   23 1   
    23   20   25 1   
    24   21   22 2   
    25   21   29 1   
    26   23   26 1   
    27   23   27 1   
    28   23   28 1   
    29   29   30 1   
    30   29   37 1   
    31   30   31 1   
    32   30   33 1   
    33   30   38 1   
    34   31   32 2   
    35   31   41 1   
    36   33   34 1   
    37   33   39 1   
    38   33   40 1   
    39   34   35 1   
    40   34   36 1   
    41   41   42 1   
    42   41   45 1   
    43   42   43 1   
    44   42   46 1   
    45   42   47 1   
    46   43   44 2   
    47   43   48 1   
    48   48   49 1   
    49   48   56 1   
    50   49   50 1   
    51   49   52 1   
    52   49   57 1   
    53   50   51 2   
    54   50   62 1   
    55   52   53 1   
    56   52   58 1   
    57   52   59 1   
    58   53   54 1   
    59   53   55 2   
    60   54   60 1   
    61   54   61 1   
    62   62   63 1   
    63   62   66 1   
    64   63   64 1   
    65   63   67 1   
    66   63   68 1   
    67   64   65 2   
    68   64   69 1   
    69   69   70 1   
    70   69   76 1   
    71   70   71 1   
    72   70   73 1   
    73   70   77 1   
    74   71   72 2   
    75   71   83 1   
    76   73   74 1   
    77   73   75 1   
    78   73   78 1   
    79   74   80 1   
    80   74   81 1   
    81   74   82 1   
    82   75   79 1   
    83   83   84 1   
    84   83   91 1   
    85   84   85 1   
    86   84   87 1   
    87   84   92 1   
    88   85   86 2   
    89   85  102 1   
    90   87   88 1   
    91   87   89 1   
    92   87   93 1   
    93   88   90 1   
    94   88   94 1   
    95   88   95 1   
    96   89   96 1   
    97   89   97 1   
    98   89   98 1   
    99   90   99 1   
   100   90  100 1   
   101   90  101 1   
   102  102  103 1   
   103  102  110 1   
   104  103  104 1   
   105  103  106 1   
   106  103  111 1   
   107  104  105 2   
   108  104  114 1   
   109  106  107 1   
   110  106  112 1   
   111  106  113 1   
   112  107  108 1   
   113  107  109 1   
   114  114  115 1   
   115  114  125 1   
   116  115  116 1   
   117  115  118 1   
   118  115  126 1   
   119  116  117 2   
   120  116  134 1   
   121  118  119 1   
   122  118  127 1   
   123  118  128 1   
   124  119  120 ar  
   125  119  121 ar  
   126  120  122 ar  
   127  120  129 1   
   128  121  123 ar  
   129  121  130 1   
   130  122  124 ar  
   131  122  131 1   
   132  123  124 ar  
   133  123  132 1   
   134  124  133 1   
   135  134  135 1   
   136  134  140 1   
   137  135  136 1   
   138  135  138 1   
   139  135  141 1   
   140  136  137 2   
   141  136  148 1   
   142  138  139 1   
   143  138  142 1   
   144  138  143 1   
   145  139  140 1   
   146  139  144 1   
   147  139  145 1   
   148  140  146 1   
   149  140  147 1   
   150  148  149 1   
   151  148  157 1   
   152  149  150 1   
   153  149  152 1   
   154  149  158 1   
   155  150  151 2   
   156  150  163 1   
   157  152  153 1   
   158  152  159 1   
   159  152  160 1   
   160  153  154 1   
   161  153  161 1   
   162  153  162 1   
   163  154  155 1   
   164  154  156 1   
   165  163  164 1   
   166  163  168 1   
   167  164  165 1   
   168  164  166 1   
   169  164  167 1   
   170  170  171 1   
   171  170  172 1   
   172  173  174 1   
   173  173  175 1   
@<TRIPOS>SUBSTRUCTURE
     1 MOL         1 TEMP              0 ****  ****    0 ROOT
