@<TRIPOS>MOLECULE
MOL
  179   176     1     0     0
SMALL
resp


@<TRIPOS>ATOM
      1 C1          1.7300    2.2100    6.1540 c3        1 MOL     -0.407539
      2 C2          1.2920    2.2830    4.6930 c         1 MOL      0.830261
      3 O1          2.1130    2.2550    3.7700 o         1 MOL     -0.627543
      4 H1          1.1960    1.4000    6.6520 hc        1 MOL      0.104119
      5 H2          2.8020    2.0220    6.2040 hc        1 MOL      0.104119
      6 H3          1.5020    3.1530    6.6500 hc        1 MOL      0.104119
      7 N1         -0.0520    2.3390    4.4200 n         1 MOL     -0.714133
      8 C3         -0.5060    2.2150    2.9850 c3        1 MOL      0.096635
      9 C4         -0.2050    3.5970    2.3380 c         1 MOL      0.528400
     10 O2         -0.5180    4.7010    2.8730 o         1 MOL     -0.581454
     11 C5         -2.0370    1.9090    3.0520 c3        1 MOL      0.121381
     12 C6         -2.6660    1.6020    1.6710 c         1 MOL      0.687435
     13 O3         -3.8930    1.2260    1.6730 o         1 MOL     -0.758229
     14 O4         -2.0520    1.9610    0.6510 o         1 MOL     -0.758229
     15 H4         -0.7600    2.4680    5.1260 hn        1 MOL      0.351295
     16 H5         -0.0130    1.3950    2.4720 h1        1 MOL     -0.077842
     17 H6         -2.6290    2.6550    3.5750 hc        1 MOL     -0.012391
     18 H7         -2.1100    1.0190    3.6670 hc        1 MOL     -0.012391
     19 N2          0.4720    3.6180    1.2030 n         1 MOL     -0.009320
     20 C7          0.8890    4.8420    0.4840 c3        1 MOL     -0.593405
     21 C8         -0.2150    5.5360   -0.3830 c         1 MOL      0.792276
     22 O5         -0.0450    6.6780   -0.7720 o         1 MOL     -0.604736
     23 C9          2.0560    4.4170   -0.4020 c3        1 MOL      0.634450
     24 C10         3.0560    5.5670   -0.6190 c3        1 MOL     -0.336522
     25 C11         4.3260    5.0800   -1.2680 c3        1 MOL     -0.014836
     26 C12         5.2850    6.2010   -1.5340 c3        1 MOL      0.028912
     27 N3          6.1460    5.9510   -2.6910 n4        1 MOL     -0.345857
     28 H8          0.6450    2.7110    0.7890 hn        1 MOL      0.109360
     29 H9          1.2180    5.5990    1.1950 h1        1 MOL      0.176640
     30 H10         1.6770    4.0490   -1.3650 hc        1 MOL     -0.097770
     31 H11         2.5720    3.6320    0.1410 hc        1 MOL     -0.097770
     32 H12         3.3260    5.9600    0.3660 hc        1 MOL      0.072143
     33 H13         2.5240    6.3000   -1.2250 hc        1 MOL      0.072143
     34 H14         4.0780    4.5280   -2.1740 hc        1 MOL      0.066187
     35 H15         4.7950    4.4470   -0.5080 hc        1 MOL      0.066187
     36 H16         5.8720    6.2870   -0.6150 hx        1 MOL      0.096819
     37 H17         4.8460    7.1920   -1.6570 hx        1 MOL      0.096819
     38 H18         6.5220    5.0200   -2.5680 hn        1 MOL      0.319258
     39 H19         5.6820    6.0090   -3.5820 hn        1 MOL      0.319258
     40 H20         6.9300    6.5900   -2.7370 hn        1 MOL      0.319258
     41 N4         -1.2860    4.8280   -0.5310 n         1 MOL     -0.537559
     42 C13        -2.3360    5.2810   -1.3890 c3        1 MOL      0.087845
     43 C14        -3.7670    5.0050   -0.8900 c         1 MOL      0.376747
     44 O6         -4.7060    5.5900   -1.4350 o         1 MOL     -0.509526
     45 C15        -2.1610    4.5700   -2.7020 c3        1 MOL     -0.444892
     46 C16        -1.9840    3.0730   -2.6140 c         1 MOL      0.757835
     47 O7         -2.9030    2.2480   -2.6070 o         1 MOL     -0.695211
     48 O8         -0.8290    2.6470   -2.5460 o         1 MOL     -0.695211
     49 H21        -1.2020    3.8410   -0.3310 hn        1 MOL      0.315826
     50 H22        -2.1740    6.3440   -1.5190 h1        1 MOL      0.118910
     51 H23        -1.3350    5.0430   -3.2350 hc        1 MOL      0.119458
     52 H24        -3.0800    4.7710   -3.2420 hc        1 MOL      0.119458
     53 N5         -3.9300    4.1790    0.1570 n         1 MOL     -0.053747
     54 C17        -5.1550    3.9820    0.9200 c3        1 MOL     -0.318597
     55 C18        -6.1440    3.1670    0.1870 c         1 MOL      0.538973
     56 O9         -7.3550    3.1850    0.4540 o         1 MOL     -0.584107
     57 H25        -3.1120    3.8360    0.6290 hn        1 MOL      0.149866
     58 H26        -5.6440    4.9380    1.1050 h1        1 MOL      0.143383
     59 H27        -5.0190    3.4210    1.8450 h1        1 MOL      0.143383
     60 N6         -5.6040    2.1610   -0.4800 n         1 MOL     -0.071761
     61 C19        -6.4820    1.1190   -1.0750 c3        1 MOL     -0.249180
     62 C20        -6.8350   -0.0820   -0.2040 c         1 MOL      0.557767
     63 O10        -7.6450   -0.9030   -0.6430 o         1 MOL     -0.558557
     64 C21        -5.9310    0.6840   -2.4840 c3        1 MOL      0.014023
     65 C22        -4.7220   -0.2590   -2.5310 c         1 MOL      0.521982
     66 N7         -4.8320   -1.1360   -3.4950 n         1 MOL     -0.724175
     67 O11        -3.8830   -0.4520   -1.6750 o         1 MOL     -0.540136
     68 H28        -4.6060    2.1350   -0.6260 hn        1 MOL      0.053949
     69 H29        -7.4590    1.5430   -1.3000 h1        1 MOL      0.152127
     70 H30        -5.7190    1.5760   -3.0720 hc        1 MOL      0.050218
     71 H31        -6.7170    0.1760   -3.0450 hc        1 MOL      0.050218
     72 H32        -5.5490   -0.9150   -4.1750 hn        1 MOL      0.338376
     73 H33        -3.9710   -1.5960   -3.7350 hn        1 MOL      0.338376
     74 N8         -6.3600   -0.2070    1.0520 n         1 MOL     -0.311241
     75 C23        -6.6330   -1.3410    2.0230 c3        1 MOL     -0.166794
     76 C24        -5.5420   -2.4670    2.0830 c         1 MOL      0.555241
     77 O12        -5.7530   -3.5490    2.5870 o         1 MOL     -0.536547
     78 H34        -5.7850    0.5250    1.4390 hn        1 MOL      0.308898
     79 H35        -7.5900   -1.7790    1.7470 h1        1 MOL      0.111802
     80 H36        -6.7910   -0.9000    3.0100 h1        1 MOL      0.111802
     81 N9         -4.4110   -2.2140    1.4530 n         1 MOL     -0.511698
     82 C25        -3.3210   -3.2190    1.1500 c3        1 MOL      0.436226
     83 C26        -1.9300   -2.4100    1.0370 c         1 MOL      0.167120
     84 O13        -1.8960   -1.2570    0.6650 o         1 MOL     -0.456433
     85 C27        -3.4740   -3.9360   -0.2520 c3        1 MOL      0.043182
     86 C28        -4.7810   -4.6470   -0.3700 ca        1 MOL     -0.089387
     87 C29        -4.9600   -5.8730    0.2980 ca        1 MOL     -0.071210
     88 C30        -5.7060   -4.0900   -1.2500 ca        1 MOL     -0.071210
     89 C31        -6.1730   -6.5650   -0.0070 ca        1 MOL     -0.347438
     90 C32        -6.9340   -4.7930   -1.4750 ca        1 MOL     -0.347438
     91 C33        -7.1390   -6.0110   -0.8690 ca        1 MOL      0.464628
     92 O14        -8.3270   -6.6480   -1.1180 oh        1 MOL     -0.561708
     93 H37        -4.2360   -1.2880    1.1070 hn        1 MOL      0.317682
     94 H38        -3.2380   -3.9770    1.9260 h1        1 MOL     -0.024244
     95 H39        -2.6580   -4.6520   -0.3680 hc        1 MOL     -0.012352
     96 H40        -3.3640   -3.2150   -1.0580 hc        1 MOL     -0.012352
     97 H41        -4.1610   -6.2790    0.8980 ha        1 MOL      0.130456
     98 H42        -5.5730   -3.1120   -1.6890 ha        1 MOL      0.130456
     99 H43        -6.4020   -7.5240    0.4420 ha        1 MOL      0.167619
    100 H44        -7.6230   -4.2090   -2.0720 ha        1 MOL      0.167619
    101 H45        -8.9990   -6.0250   -1.3970 ho        1 MOL      0.388107
    102 N10        -0.7920   -3.0920    1.2620 n         1 MOL     -0.275730
    103 C34         0.6320   -2.7460    1.0560 c3        1 MOL      0.002209
    104 C35         1.5600   -3.7920    0.3570 c         1 MOL      0.485248
    105 O15         1.3960   -5.0180    0.5120 o         1 MOL     -0.550712
    106 C36         1.3240   -2.3090    2.3770 c3        1 MOL     -0.023144
    107 C37         1.3430   -3.3190    3.4830 c3        1 MOL      0.100852
    108 C38         0.9390   -0.8360    2.7260 c3        1 MOL     -0.432318
    109 C39         2.1260   -2.9490    4.7210 c3        1 MOL     -0.284844
    110 H46        -0.9110   -4.0620    1.5290 hn        1 MOL      0.232897
    111 H47         0.6410   -1.8500    0.4490 h1        1 MOL      0.055869
    112 H48         2.3560   -2.2140    2.0450 hc        1 MOL     -0.012666
    113 H49         1.6190   -4.3140    3.1350 hc        1 MOL      0.023570
    114 H50         0.3060   -3.5120    3.7310 hc        1 MOL      0.023570
    115 H51        -0.0610   -0.8230    3.1660 hc        1 MOL      0.157360
    116 H52         1.5450   -0.3200    3.4660 hc        1 MOL      0.157360
    117 H53         1.1500   -0.2330    1.8360 hc        1 MOL      0.157360
    118 H54         2.0360   -3.7110    5.4980 hc        1 MOL      0.068903
    119 H55         3.1680   -2.9220    4.4250 hc        1 MOL      0.068903
    120 H56         1.7710   -2.0490    5.2380 hc        1 MOL      0.068903
    121 N11         2.5960   -3.3110   -0.2570 n         1 MOL     -0.229638
    122 C40         3.5830   -4.2180   -0.8710 c3        1 MOL      0.113704
    123 C41         4.9210   -3.9960   -0.2980 c         1 MOL      0.427129
    124 O16         5.1070   -3.0180    0.4150 o         1 MOL     -0.402554
    125 C42         3.6260   -3.9650   -2.3720 c3        1 MOL     -0.165716
    126 O17         4.3020   -2.7560   -2.7330 oh        1 MOL     -0.418351
    127 H57         2.8040   -2.3300   -0.1580 hn        1 MOL      0.160215
    128 H58         3.3430   -5.2790   -0.7740 h1        1 MOL      0.084037
    129 H59         2.6280   -3.8910   -2.7800 h1        1 MOL      0.093685
    130 H60         4.2100   -4.7430   -2.8510 h1        1 MOL      0.093685
    131 H61         4.0190   -2.5650   -3.6370 ho        1 MOL      0.378575
    132 N12         5.9190   -4.7970   -0.6710 n         1 MOL     -0.484698
    133 C43         7.3330   -4.5940   -0.4690 c3        1 MOL      0.300702
    134 C44         7.7080   -3.0670   -0.7520 c         1 MOL      0.361587
    135 O18         8.4480   -2.5240    0.0320 o         1 MOL     -0.518234
    136 C45         7.9370   -5.5680   -1.4640 c3        1 MOL     -0.201325
    137 H62         5.7410   -5.5870   -1.2800 hn        1 MOL      0.292776
    138 H63         7.7070   -4.9170    0.5010 h1        1 MOL      0.041279
    139 H64         9.0290   -5.4670   -1.4330 hc        1 MOL      0.050005
    140 H65         7.5900   -6.5830   -1.3000 hc        1 MOL      0.050005
    141 H66         7.6250   -5.1420   -2.4180 hc        1 MOL      0.050005
    142 N13         7.2420   -2.3900   -1.7580 n         1 MOL     -0.214891
    143 C46         7.7480   -1.0240   -2.0400 c3        1 MOL      0.044255
    144 C47         7.0980    0.1090   -1.1960 c         1 MOL      0.330498
    145 O19         7.7170    1.1220   -0.8550 o         1 MOL     -0.524610
    146 C48         7.6590   -0.6620   -3.5430 c3        1 MOL     -0.327164
    147 H67         6.5690   -2.8190   -2.3790 hn        1 MOL      0.197405
    148 H68         8.8260   -0.9840   -1.8390 h1        1 MOL      0.135428
    149 H69         8.2610   -1.3880   -4.1020 hc        1 MOL      0.092159
    150 H70         6.6080   -0.7570   -3.8070 hc        1 MOL      0.092159
    151 H71         8.1480    0.2950   -3.6930 hc        1 MOL      0.092159
    152 N14         5.8770   -0.0420   -0.6900 n         1 MOL     -0.025537
    153 C49         5.2680    0.8480    0.3060 c3        1 MOL      0.072863
    154 C50         5.9010    0.6620    1.7500 c         1 MOL      0.438657
    155 O20         6.2100    1.6150    2.5050 o         1 MOL     -0.501352
    156 C51         3.7380    0.6950    0.3880 c3        1 MOL      0.007479
    157 C52         3.1060    0.7680   -1.0620 c3        1 MOL      0.340975
    158 C53         1.6090    0.8020   -1.1830 c         1 MOL      0.737423
    159 O21         1.1190    0.2360   -2.2060 o         1 MOL     -0.778039
    160 O22         0.8070    1.1820   -0.2800 o         1 MOL     -0.778039
    161 H72         5.4420   -0.9530   -0.7940 hn        1 MOL      0.039259
    162 H73         5.4640    1.8500   -0.0830 h1        1 MOL     -0.019942
    163 H74         3.3210    1.5170    0.9660 hc        1 MOL      0.017000
    164 H75         3.4530   -0.2770    0.8000 hc        1 MOL      0.017000
    165 H76         3.5230    0.0560   -1.7590 hc        1 MOL     -0.177607
    166 H77         3.4870    1.7050   -1.4570 hc        1 MOL     -0.177607
    167 N15         6.2610   -0.6710    1.9770 n         1 MOL     -0.155814
    168 C54         7.1020   -0.9410    3.0930 c3        1 MOL     -0.327279
    169 H78         6.5530   -1.5320    3.8250 h1        1 MOL      0.123225
    170 H79         7.9790   -1.4960    2.7610 h1        1 MOL      0.123225
    171 H80         7.4160   -0.0010    3.5470 h1        1 MOL      0.123225
    172 H81         5.9650   -1.3450    1.2970 hn        1 MOL      0.166058
    173 Ca1        -1.4150    0.3970   -1.3460 Ca        1 MOL      1.757500
    174 O23        -1.7140   -0.3200   -3.8840 oh        1 MOL     -0.792133
    175 H82        -2.0960   -1.0900   -4.3020 ho        1 MOL      0.387343
    176 H83        -1.1640    0.0670   -4.5720 ho        1 MOL      0.387343
    177 O24        -1.1810   -2.4340   -1.8780 oh        1 MOL     -0.792133
    178 H84        -0.3850   -2.5760   -2.3970 ho        1 MOL      0.387343
    179 H85        -1.8840   -2.7250   -2.4470 ho        1 MOL      0.387343
@<TRIPOS>BOND
     1    1    2 1   
     2    1    4 1   
     3    1    5 1   
     4    1    6 1   
     5    2    3 2   
     6    2    7 1   
     7    7    8 1   
     8    7   15 1   
     9    8    9 1   
    10    8   11 1   
    11    8   16 1   
    12    9   10 2   
    13    9   19 1   
    14   11   12 1   
    15   11   17 1   
    16   11   18 1   
    17   12   13 1   
    18   12   14 1   
    19   19   20 1   
    20   19   28 1   
    21   20   21 1   
    22   20   23 1   
    23   20   29 1   
    24   21   22 2   
    25   21   41 1   
    26   23   24 1   
    27   23   30 1   
    28   23   31 1   
    29   24   25 1   
    30   24   32 1   
    31   24   33 1   
    32   25   26 1   
    33   25   34 1   
    34   25   35 1   
    35   26   27 1   
    36   26   36 1   
    37   26   37 1   
    38   27   38 1   
    39   27   39 1   
    40   27   40 1   
    41   41   42 1   
    42   41   49 1   
    43   42   43 1   
    44   42   45 1   
    45   42   50 1   
    46   43   44 2   
    47   43   53 1   
    48   45   46 1   
    49   45   51 1   
    50   45   52 1   
    51   46   47 1   
    52   46   48 1   
    53   53   54 1   
    54   53   57 1   
    55   54   55 1   
    56   54   58 1   
    57   54   59 1   
    58   55   56 2   
    59   55   60 1   
    60   60   61 1   
    61   60   68 1   
    62   61   62 1   
    63   61   64 1   
    64   61   69 1   
    65   62   63 2   
    66   62   74 1   
    67   64   65 1   
    68   64   70 1   
    69   64   71 1   
    70   65   66 1   
    71   65   67 2   
    72   66   72 1   
    73   66   73 1   
    74   74   75 1   
    75   74   78 1   
    76   75   76 1   
    77   75   79 1   
    78   75   80 1   
    79   76   77 2   
    80   76   81 1   
    81   81   82 1   
    82   81   93 1   
    83   82   83 1   
    84   82   85 1   
    85   82   94 1   
    86   83   84 2   
    87   83  102 1   
    88   85   86 1   
    89   85   95 1   
    90   85   96 1   
    91   86   87 ar  
    92   86   88 ar  
    93   87   89 ar  
    94   87   97 1   
    95   88   90 ar  
    96   88   98 1   
    97   89   91 ar  
    98   89   99 1   
    99   90   91 ar  
   100   90  100 1   
   101   91   92 1   
   102   92  101 1   
   103  102  103 1   
   104  102  110 1   
   105  103  104 1   
   106  103  106 1   
   107  103  111 1   
   108  104  105 2   
   109  104  121 1   
   110  106  107 1   
   111  106  108 1   
   112  106  112 1   
   113  107  109 1   
   114  107  113 1   
   115  107  114 1   
   116  108  115 1   
   117  108  116 1   
   118  108  117 1   
   119  109  118 1   
   120  109  119 1   
   121  109  120 1   
   122  121  122 1   
   123  121  127 1   
   124  122  123 1   
   125  122  125 1   
   126  122  128 1   
   127  123  124 2   
   128  123  132 1   
   129  125  126 1   
   130  125  129 1   
   131  125  130 1   
   132  126  131 1   
   133  132  133 1   
   134  132  137 1   
   135  133  134 1   
   136  133  136 1   
   137  133  138 1   
   138  134  135 2   
   139  134  142 1   
   140  136  139 1   
   141  136  140 1   
   142  136  141 1   
   143  142  143 1   
   144  142  147 1   
   145  143  144 1   
   146  143  146 1   
   147  143  148 1   
   148  144  145 2   
   149  144  152 1   
   150  146  149 1   
   151  146  150 1   
   152  146  151 1   
   153  152  153 1   
   154  152  161 1   
   155  153  154 1   
   156  153  156 1   
   157  153  162 1   
   158  154  155 2   
   159  154  167 1   
   160  156  157 1   
   161  156  163 1   
   162  156  164 1   
   163  157  158 1   
   164  157  165 1   
   165  157  166 1   
   166  158  159 1   
   167  158  160 1   
   168  167  168 1   
   169  167  172 1   
   170  168  169 1   
   171  168  170 1   
   172  168  171 1   
   173  174  175 1   
   174  174  176 1   
   175  177  178 1   
   176  177  179 1   
@<TRIPOS>SUBSTRUCTURE
     1 MOL         1 TEMP              0 ****  ****    0 ROOT
