@<TRIPOS>MOLECULE
MOL
  189   185     1     0     0
SMALL
resp


@<TRIPOS>ATOM
      1 C1         -0.0250    4.0770    5.7030 c3        1 MOL     -0.387494
      2 C2         -0.7790    3.3900    4.4750 c         1 MOL      0.771781
      3 O1         -0.6800    2.2090    4.3130 o         1 MOL     -0.604031
      4 H1          0.6730    3.3650    6.1450 hc        1 MOL      0.090723
      5 H2          0.5240    4.9510    5.3500 hc        1 MOL      0.090723
      6 H3         -0.7540    4.3840    6.4530 hc        1 MOL      0.090723
      7 N1         -1.4980    4.1850    3.7020 n         1 MOL     -0.641331
      8 C3         -2.2060    3.7530    2.5370 c3        1 MOL      0.522794
      9 C4         -2.2940    4.8690    1.5360 c         1 MOL      0.322955
     10 O2         -2.2970    6.0060    1.9910 o         1 MOL     -0.546835
     11 C5         -3.6720    3.2680    2.9150 c3        1 MOL     -0.591230
     12 C6         -4.3650    2.5080    1.7480 c         1 MOL      0.926431
     13 O3         -3.7810    2.2050    0.6790 o         1 MOL     -0.737626
     14 O4         -5.5420    2.1220    1.9340 o         1 MOL     -0.737626
     15 H4         -1.3280    5.1710    3.8290 hn        1 MOL      0.293800
     16 H5         -1.6340    2.9220    2.1160 h1        1 MOL     -0.149513
     17 H6         -4.2680    4.1470    3.1260 hc        1 MOL      0.145503
     18 H7         -3.5590    2.5920    3.7680 hc        1 MOL      0.145503
     19 N2         -2.4210    4.6050    0.2230 n         1 MOL     -0.093944
     20 C7         -2.6460    5.5480   -0.8420 c3        1 MOL     -0.315573
     21 C8         -3.3920    4.8970   -2.0760 c         1 MOL      0.546119
     22 O5         -3.5600    5.6140   -3.1130 o         1 MOL     -0.574405
     23 C9         -1.2870    6.1450   -1.1840 c3        1 MOL      0.083963
     24 C10        -1.1580    7.3730   -2.1880 c3        1 MOL      0.011816
     25 C11        -0.3600    5.0280   -1.7390 c3        1 MOL     -0.373181
     26 C12         0.1390    8.0920   -1.9980 c3        1 MOL     -0.153687
     27 H8         -2.1450    3.6650   -0.0020 hn        1 MOL      0.341097
     28 H9         -3.3440    6.3210   -0.5080 h1        1 MOL      0.135514
     29 H10        -0.9230    6.4570   -0.2010 hc        1 MOL      0.049653
     30 H11        -1.8980    8.1240   -1.9010 hc        1 MOL      0.024550
     31 H12        -1.2930    7.0430   -3.2150 hc        1 MOL      0.024550
     32 H13        -0.7960    4.4420   -2.5490 hc        1 MOL      0.120967
     33 H14         0.6080    5.3930   -2.0930 hc        1 MOL      0.120967
     34 H15        -0.1600    4.2850   -0.9590 hc        1 MOL      0.120967
     35 H16         0.9290    7.5800   -2.5390 hc        1 MOL      0.023900
     36 H17         0.0590    9.1050   -2.3830 hc        1 MOL      0.023900
     37 H18         0.3070    8.2090   -0.9280 hc        1 MOL      0.023900
     38 N3         -3.9730    3.6870   -1.8750 n         1 MOL     -0.298881
     39 C13        -4.6670    3.0470   -2.9860 c3        1 MOL     -0.040621
     40 C14        -5.8370    2.2150   -2.4550 c         1 MOL      0.520462
     41 O6         -6.7170    1.9890   -3.2750 o         1 MOL     -0.566968
     42 C15        -3.6860    2.2730   -3.9050 c3        1 MOL     -0.079748
     43 C16        -2.6260    1.3810   -3.3230 c         1 MOL      0.754342
     44 O7         -2.5840    1.0760   -2.0820 o         1 MOL     -0.724718
     45 O8         -1.7550    0.9160   -4.0940 o         1 MOL     -0.724718
     46 H19        -3.6800    3.2230   -1.0280 hn        1 MOL      0.038967
     47 H20        -5.1190    3.8300   -3.5770 h1        1 MOL      0.097674
     48 H21        -3.2440    2.9550   -4.6320 hc        1 MOL      0.026771
     49 H22        -4.3490    1.5890   -4.4420 hc        1 MOL      0.026771
     50 N4         -6.0340    1.9870   -1.1650 n         1 MOL     -0.220925
     51 C17        -7.3120    1.4310   -0.7450 c3        1 MOL     -0.093945
     52 C18        -7.7090    0.1040   -1.3890 c         1 MOL      0.399220
     53 O9         -8.8850   -0.2900   -1.3460 o         1 MOL     -0.586935
     54 H23        -5.4740    2.4840   -0.4870 hn        1 MOL      0.196806
     55 H24        -8.0860    2.1780   -0.9350 h1        1 MOL      0.083574
     56 H25        -7.3370    1.2660    0.3320 h1        1 MOL      0.083574
     57 N5         -6.6910   -0.6950   -1.6540 n         1 MOL      0.021478
     58 C19        -6.6110   -2.0390   -2.0960 c3        1 MOL     -0.313178
     59 C20        -6.8020   -3.1070   -0.9660 c         1 MOL      0.448160
     60 O10        -6.9140   -4.3010   -1.1820 o         1 MOL     -0.504019
     61 C21        -5.4550   -2.3030   -3.0360 c3        1 MOL     -0.008716
     62 C22        -4.0310   -2.0090   -2.4970 c         1 MOL      0.683243
     63 O11        -3.8230   -1.6250   -1.3340 o         1 MOL     -0.688732
     64 O12        -3.0640   -2.3130   -3.2710 o         1 MOL     -0.688732
     65 H26        -5.8140   -0.2220   -1.5020 hn        1 MOL      0.042464
     66 H27        -7.4350   -2.1950   -2.7890 h1        1 MOL      0.152744
     67 H28        -5.5470   -1.7290   -3.9580 hc        1 MOL      0.038000
     68 H29        -5.5570   -3.2800   -3.5230 hc        1 MOL      0.038000
     69 N6         -6.8490   -2.6540    0.2990 n         1 MOL     -0.127472
     70 C23        -6.9780   -3.5070    1.4450 c3        1 MOL     -0.294565
     71 C24        -5.6800   -4.3110    1.6810 c         1 MOL      0.638182
     72 O13        -5.8230   -5.3820    2.2470 o         1 MOL     -0.577640
     73 H30        -6.5420   -1.7020    0.4270 hn        1 MOL      0.184083
     74 H31        -7.7790   -4.2430    1.3200 h1        1 MOL      0.112390
     75 H32        -7.3010   -2.8580    2.2540 h1        1 MOL      0.112390
     76 N7         -4.5230   -3.8170    1.3180 n         1 MOL     -0.406996
     77 C25        -3.2560   -4.4540    1.5930 c3        1 MOL      0.235857
     78 C26        -2.1190   -3.4270    1.7580 c         1 MOL      0.274133
     79 O14        -2.2340   -2.3300    1.2030 o         1 MOL     -0.310741
     80 C27        -2.8970   -5.4130    0.5280 c3        1 MOL     -0.233886
     81 C28        -2.9400   -4.8560   -0.9140 c3        1 MOL      0.275971
     82 C29        -2.7300   -5.8200   -2.0200 c         1 MOL      0.550583
     83 N8         -2.6730   -5.2420   -3.2320 n         1 MOL     -0.762544
     84 O15        -2.5550   -7.0320   -1.8540 o         1 MOL     -0.607370
     85 H33        -4.5500   -3.0570    0.6480 hn        1 MOL      0.181790
     86 H34        -3.4210   -5.0010    2.5270 h1        1 MOL     -0.003643
     87 H35        -3.6370   -6.2040    0.6480 hc        1 MOL      0.050574
     88 H36        -1.9030   -5.8010    0.7480 hc        1 MOL      0.050574
     89 H37        -2.1350   -4.1110   -0.9600 hc        1 MOL     -0.038442
     90 H38        -3.9500   -4.4840   -1.1040 hc        1 MOL     -0.038442
     91 H39        -2.8000   -4.2520   -3.4090 hn        1 MOL      0.335991
     92 H40        -2.4470   -5.8390   -4.0120 hn        1 MOL      0.335991
     93 N9         -1.0120   -3.7310    2.3940 n         1 MOL     -0.274952
     94 C30         0.1670   -2.9210    2.4330 c3        1 MOL     -0.293697
     95 C31         1.1930   -3.4200    1.3770 c         1 MOL      0.847270
     96 O16         1.4920   -4.5780    1.2230 o         1 MOL     -0.607699
     97 C32         0.7700   -2.8190    3.8660 c3        1 MOL      0.203888
     98 C33         2.2610   -2.5790    4.0950 c3        1 MOL     -0.364700
     99 C34         0.0010   -1.7690    4.6480 c3        1 MOL     -0.364700
    100 H41        -0.8030   -4.6700    2.7190 hn        1 MOL      0.257622
    101 H42        -0.1090   -1.9040    2.1450 h1        1 MOL      0.093894
    102 H43         0.5530   -3.7840    4.3350 hc        1 MOL     -0.006288
    103 H44         2.8160   -3.4870    3.8750 hc        1 MOL      0.087891
    104 H45         2.6430   -1.7680    3.4740 hc        1 MOL      0.087891
    105 H46         2.3040   -2.4150    5.1780 hc        1 MOL      0.087891
    106 H47        -1.0490   -1.9110    4.3800 hc        1 MOL      0.087891
    107 H48         0.2550   -1.8950    5.6930 hc        1 MOL      0.087891
    108 H49         0.3650   -0.7660    4.4500 hc        1 MOL      0.087891
    109 N10         1.6420   -2.5130    0.4620 n         1 MOL     -0.517222
    110 C35         2.8320   -2.6080   -0.3590 c3        1 MOL      0.179891
    111 C36         4.1630   -2.4620    0.4810 c         1 MOL     -0.009443
    112 O17         4.0440   -1.7940    1.4710 o         1 MOL     -0.114807
    113 C37         2.6950   -1.5330   -1.4870 c3        1 MOL     -0.486614
    114 C38         3.8800   -1.5050   -2.3940 c         1 MOL      0.800162
    115 N11         3.9670   -2.4040   -3.3640 n         1 MOL     -0.784392
    116 O18         4.8290   -0.7880   -2.1660 o         1 MOL     -0.632522
    117 H50         1.2340   -1.5850    0.4700 hn        1 MOL      0.294054
    118 H51         2.7470   -3.5840   -0.8320 h1        1 MOL      0.047028
    119 H52         2.5180   -0.5260   -1.1150 hc        1 MOL      0.182304
    120 H53         1.7960   -1.7590   -2.0500 hc        1 MOL      0.182304
    121 H54         3.3380   -3.1780   -3.4540 hn        1 MOL      0.347799
    122 H55         4.8810   -2.4240   -3.8030 hn        1 MOL      0.347799
    123 N12         5.3570   -2.9820    0.0450 n         1 MOL     -0.054598
    124 C39         6.6700   -2.7360    0.6240 c3        1 MOL      0.052841
    125 C40         6.8210   -1.2120    0.9420 c         1 MOL      0.396596
    126 O19         7.3940   -0.8410    1.9270 o         1 MOL     -0.576281
    127 C41         7.9010   -3.1050   -0.2190 c3        1 MOL     -0.296303
    128 C42         8.0530   -2.5760   -1.6940 ca        1 MOL      0.082767
    129 C43         8.9600   -1.4540   -1.9400 ca        1 MOL     -0.258238
    130 C44         7.3130   -3.0960   -2.8150 ca        1 MOL     -0.258238
    131 C45         9.1600   -1.0980   -3.2840 ca        1 MOL     -0.266694
    132 C46         7.4630   -2.5900   -4.1370 ca        1 MOL     -0.266694
    133 C47         8.4920   -1.6760   -4.3320 ca        1 MOL      0.486619
    134 O20         8.9260   -1.3110   -5.5550 oh        1 MOL     -0.609617
    135 H56         5.3630   -3.5960   -0.7630 hn        1 MOL      0.112268
    136 H57         6.6200   -3.3600    1.5160 h1        1 MOL      0.048058
    137 H58         7.7750   -4.1790   -0.3460 hc        1 MOL      0.107428
    138 H59         8.8060   -2.8530    0.3270 hc        1 MOL      0.107428
    139 H60         9.5940   -1.0690   -1.1590 ha        1 MOL      0.179297
    140 H61         6.5790   -3.8670   -2.6460 ha        1 MOL      0.179297
    141 H62         9.9930   -0.4430   -3.4630 ha        1 MOL      0.148740
    142 H63         6.8510   -2.9160   -4.9620 ha        1 MOL      0.148740
    143 H64         9.5770   -0.5970   -5.5940 ho        1 MOL      0.429811
    144 N13         6.3850   -0.3120    0.0730 n         1 MOL      0.082309
    145 C48         6.5590    1.1520    0.2920 c3        1 MOL     -0.451756
    146 C49         5.6910    1.7080    1.4460 c         1 MOL      0.511152
    147 O21         6.0510    2.6590    2.1300 o         1 MOL     -0.528533
    148 C50         6.4220    1.9960   -0.9550 c3        1 MOL      0.374106
    149 C51         7.2370    3.3020   -0.9700 c3        1 MOL     -0.330104
    150 C52         7.5370    3.8040   -2.3940 c         1 MOL      0.718590
    151 O22         8.5230    3.3750   -2.9940 o         1 MOL     -0.742074
    152 O23         6.7510    4.5260   -2.9670 o         1 MOL     -0.742074
    153 H65         6.0130   -0.6740   -0.8010 hn        1 MOL      0.253776
    154 H66         7.5760    1.3250    0.6290 h1        1 MOL      0.170837
    155 H67         5.3850    2.2190   -1.1850 hc        1 MOL     -0.011641
    156 H68         6.8300    1.4520   -1.8120 hc        1 MOL     -0.011641
    157 H69         8.1720    3.1480   -0.4250 hc        1 MOL      0.024870
    158 H70         6.5620    3.9770   -0.4490 hc        1 MOL      0.024870
    159 N14         4.4870    1.1740    1.7120 n         1 MOL     -0.184597
    160 C53         3.7030    1.6290    2.8460 c3        1 MOL     -0.010006
    161 C54         4.2280    0.9050    4.1020 c         1 MOL      0.359578
    162 O24         4.2490    1.5100    5.1790 o         1 MOL     -0.564725
    163 C55         2.2690    1.2200    2.5410 c3        1 MOL      0.136657
    164 C56         1.5850    1.9680    1.4420 c3        1 MOL     -0.102547
    165 C57         0.2700    1.3790    0.9510 c         1 MOL      0.878086
    166 O25        -0.0100    0.1810    1.1010 o         1 MOL     -0.817739
    167 O26        -0.5120    2.0230    0.1710 o         1 MOL     -0.817739
    168 H71         4.1030    0.3790    1.2160 hn        1 MOL      0.005493
    169 H72         3.8160    2.6900    3.0800 h1        1 MOL      0.091268
    170 H73         1.6360    1.4340    3.4010 hc        1 MOL      0.012155
    171 H74         2.3370    0.1500    2.3720 hc        1 MOL      0.012155
    172 H75         2.1960    2.1080    0.5410 hc        1 MOL     -0.002345
    173 H76         1.5220    3.0010    1.7940 hc        1 MOL     -0.002345
    174 N15         4.7880   -0.3020    4.0150 n         1 MOL      0.110874
    175 C58         5.2240   -1.0640    5.2140 c3        1 MOL     -0.328071
    176 H77         5.3210   -2.1190    4.9570 h1        1 MOL      0.102491
    177 H78         6.1870   -0.6840    5.5560 h1        1 MOL      0.102491
    178 H79         4.4850   -0.9500    6.0070 h1        1 MOL      0.102491
    179 H80         4.9040   -0.6540    3.0740 hn        1 MOL     -0.008596
    180 Ca1        -2.3840    0.0970    0.1860 Ca        1 MOL      1.786014
    181 O27        -2.5020    0.1260    3.0430 oh        1 MOL     -0.899367
    182 H81        -1.7400    0.4550    3.5180 ho        1 MOL      0.425386
    183 H82        -2.8930   -0.5310    3.6100 ho        1 MOL      0.425386
    184 O28        -4.8580   -0.5640    1.5800 oh        1 MOL     -0.899367
    185 H83        -5.3900    0.2280    1.4740 ho        1 MOL      0.425386
    186 H84        -5.0890   -0.8830    2.4470 ho        1 MOL      0.425386
    187 O29        -0.8410   -1.4040   -1.5610 oh        1 MOL     -0.899367
    188 H85        -0.2420   -1.1260   -2.2490 ho        1 MOL      0.425386
    189 H86        -1.6010   -1.7480   -2.0240 ho        1 MOL      0.425386
@<TRIPOS>BOND
     1    1    2 1   
     2    1    4 1   
     3    1    5 1   
     4    1    6 1   
     5    2    3 2   
     6    2    7 1   
     7    7    8 1   
     8    7   15 1   
     9    8    9 1   
    10    8   11 1   
    11    8   16 1   
    12    9   10 2   
    13    9   19 1   
    14   11   12 1   
    15   11   17 1   
    16   11   18 1   
    17   12   13 1   
    18   12   14 1   
    19   19   20 1   
    20   19   27 1   
    21   20   21 1   
    22   20   23 1   
    23   20   28 1   
    24   21   22 2   
    25   21   38 1   
    26   23   24 1   
    27   23   25 1   
    28   23   29 1   
    29   24   26 1   
    30   24   30 1   
    31   24   31 1   
    32   25   32 1   
    33   25   33 1   
    34   25   34 1   
    35   26   35 1   
    36   26   36 1   
    37   26   37 1   
    38   38   39 1   
    39   38   46 1   
    40   39   40 1   
    41   39   42 1   
    42   39   47 1   
    43   40   41 2   
    44   40   50 1   
    45   42   43 1   
    46   42   48 1   
    47   42   49 1   
    48   43   44 1   
    49   43   45 1   
    50   50   51 1   
    51   50   54 1   
    52   51   52 1   
    53   51   55 1   
    54   51   56 1   
    55   52   53 2   
    56   52   57 1   
    57   57   58 1   
    58   57   65 1   
    59   58   59 1   
    60   58   61 1   
    61   58   66 1   
    62   59   60 2   
    63   59   69 1   
    64   61   62 1   
    65   61   67 1   
    66   61   68 1   
    67   62   63 1   
    68   62   64 1   
    69   69   70 1   
    70   69   73 1   
    71   70   71 1   
    72   70   74 1   
    73   70   75 1   
    74   71   72 2   
    75   71   76 1   
    76   76   77 1   
    77   76   85 1   
    78   77   78 1   
    79   77   80 1   
    80   77   86 1   
    81   78   79 2   
    82   78   93 1   
    83   80   81 1   
    84   80   87 1   
    85   80   88 1   
    86   81   82 1   
    87   81   89 1   
    88   81   90 1   
    89   82   83 1   
    90   82   84 2   
    91   83   91 1   
    92   83   92 1   
    93   93   94 1   
    94   93  100 1   
    95   94   95 1   
    96   94   97 1   
    97   94  101 1   
    98   95   96 2   
    99   95  109 1   
   100   97   98 1   
   101   97   99 1   
   102   97  102 1   
   103   98  103 1   
   104   98  104 1   
   105   98  105 1   
   106   99  106 1   
   107   99  107 1   
   108   99  108 1   
   109  109  110 1   
   110  109  117 1   
   111  110  111 1   
   112  110  113 1   
   113  110  118 1   
   114  111  112 2   
   115  111  123 1   
   116  113  114 1   
   117  113  119 1   
   118  113  120 1   
   119  114  115 1   
   120  114  116 2   
   121  115  121 1   
   122  115  122 1   
   123  123  124 1   
   124  123  135 1   
   125  124  125 1   
   126  124  127 1   
   127  124  136 1   
   128  125  126 2   
   129  125  144 1   
   130  127  128 1   
   131  127  137 1   
   132  127  138 1   
   133  128  129 ar  
   134  128  130 ar  
   135  129  131 ar  
   136  129  139 1   
   137  130  132 ar  
   138  130  140 1   
   139  131  133 ar  
   140  131  141 1   
   141  132  133 ar  
   142  132  142 1   
   143  133  134 1   
   144  134  143 1   
   145  144  145 1   
   146  144  153 1   
   147  145  146 1   
   148  145  148 1   
   149  145  154 1   
   150  146  147 2   
   151  146  159 1   
   152  148  149 1   
   153  148  155 1   
   154  148  156 1   
   155  149  150 1   
   156  149  157 1   
   157  149  158 1   
   158  150  151 1   
   159  150  152 1   
   160  159  160 1   
   161  159  168 1   
   162  160  161 1   
   163  160  163 1   
   164  160  169 1   
   165  161  162 2   
   166  161  174 1   
   167  163  164 1   
   168  163  170 1   
   169  163  171 1   
   170  164  165 1   
   171  164  172 1   
   172  164  173 1   
   173  165  166 1   
   174  165  167 1   
   175  174  175 1   
   176  174  179 1   
   177  175  176 1   
   178  175  177 1   
   179  175  178 1   
   180  181  182 1   
   181  181  183 1   
   182  184  185 1   
   183  184  186 1   
   184  187  188 1   
   185  187  189 1   
@<TRIPOS>SUBSTRUCTURE
     1 MOL         1 TEMP              0 ****  ****    0 ROOT
