@<TRIPOS>MOLECULE
MOL
  186   183     1     0     0
SMALL
resp


@<TRIPOS>ATOM
      1 C1          0.9550   -0.4600    6.6510 c3        1 MOL     -0.303893
      2 C2          1.0260   -0.9150    5.2350 c         1 MOL      0.855427
      3 O1          0.0740   -0.8950    4.5350 o         1 MOL     -0.610033
      4 H1          1.5970   -1.0900    7.2670 hc        1 MOL      0.060477
      5 H2          1.2900    0.5750    6.7180 hc        1 MOL      0.060477
      6 H3         -0.0730   -0.5350    7.0060 hc        1 MOL      0.060477
      7 N1          2.2470   -1.1900    4.7280 n         1 MOL     -0.833185
      8 C3          2.5490   -1.4400    3.3190 c3        1 MOL      0.591436
      9 C4          2.7570   -2.9500    3.0390 c         1 MOL      0.242462
     10 O2          3.2560   -3.7480    3.8340 o         1 MOL     -0.562621
     11 C5          3.7880   -0.5720    3.0100 c3        1 MOL     -0.194848
     12 C6          4.4540   -0.8330    1.6090 c         1 MOL      0.693844
     13 O3          5.7310   -0.7090    1.5480 o         1 MOL     -0.655526
     14 O4          3.7600   -1.1110    0.5470 o         1 MOL     -0.655526
     15 H4          2.9810   -0.9610    5.3860 hn        1 MOL      0.333141
     16 H5          1.7650   -1.0280    2.6880 h1        1 MOL     -0.045756
     17 H6          4.5240   -0.6010    3.8020 hc        1 MOL      0.029535
     18 H7          3.4020    0.4450    2.9470 hc        1 MOL      0.029535
     19 N2          2.4100   -3.3510    1.8340 n         1 MOL      0.032002
     20 C7          2.2320   -4.7900    1.4700 c3        1 MOL     -0.170299
     21 C8          3.0550   -5.0800    0.1190 c         1 MOL      0.488563
     22 O5          3.2240   -6.2740   -0.1990 o         1 MOL     -0.572875
     23 C9          0.6700   -5.0740    1.3510 c3        1 MOL      0.491748
     24 C10         0.0980   -4.8650    2.7380 c3        1 MOL     -0.026632
     25 C11         0.2980   -6.5130    0.8850 c3        1 MOL     -0.368927
     26 C12        -1.3980   -5.0070    2.7150 c3        1 MOL     -0.059494
     27 H8          2.0150   -2.6650    1.2080 hn        1 MOL     -0.042409
     28 H9          2.5220   -5.4320    2.3040 h1        1 MOL      0.077539
     29 H10         0.2500   -4.2860    0.7230 hc        1 MOL     -0.078996
     30 H11         0.3760   -3.8350    2.9970 hc        1 MOL     -0.025185
     31 H12         0.4660   -5.6340    3.4100 hc        1 MOL     -0.025185
     32 H13         0.8020   -6.7490   -0.0460 hc        1 MOL      0.067351
     33 H14         0.7670   -7.2250    1.5730 hc        1 MOL      0.067351
     34 H15        -0.7740   -6.7470    0.8530 hc        1 MOL      0.067351
     35 H16        -1.9100   -4.7020    3.6250 hc        1 MOL      0.004646
     36 H17        -1.8120   -4.2670    2.0200 hc        1 MOL      0.004646
     37 H18        -1.6890   -6.0400    2.5350 hc        1 MOL      0.004646
     38 N3          3.6610   -4.1110   -0.5470 n         1 MOL     -0.345853
     39 C13         4.5270   -4.3970   -1.7370 c3        1 MOL      0.090772
     40 C14         5.8210   -3.6160   -1.7760 c         1 MOL      0.424584
     41 O6          6.4240   -3.5040   -2.8500 o         1 MOL     -0.475728
     42 C15         3.6860   -4.3660   -3.0220 c3        1 MOL     -0.139274
     43 C16         2.9310   -3.0740   -3.2340 c         1 MOL      0.764222
     44 O7          1.8680   -3.1220   -3.9700 o         1 MOL     -0.723809
     45 O8          3.3180   -1.9910   -2.7670 o         1 MOL     -0.723809
     46 H19         3.5320   -3.1450   -0.2780 hn        1 MOL      0.187698
     47 H20         4.9200   -5.4070   -1.6960 h1        1 MOL      0.059336
     48 H21         2.9900   -5.1840   -2.8650 hc        1 MOL      0.034368
     49 H22         4.3720   -4.6610   -3.8150 hc        1 MOL      0.034368
     50 N4          6.2540   -3.0710   -0.5990 n         1 MOL     -0.327178
     51 C17         7.5780   -2.5820   -0.3950 c3        1 MOL      0.015680
     52 C18         7.8960   -1.3390   -1.1160 c         1 MOL      0.408022
     53 O9          8.9020   -1.3580   -1.8430 o         1 MOL     -0.577810
     54 H23         5.5850   -3.1110    0.1580 hn        1 MOL      0.227152
     55 H24         8.3150   -3.3380   -0.6800 h1        1 MOL      0.048642
     56 H25         7.8500   -2.4840    0.6540 h1        1 MOL      0.048642
     57 N5          7.1730   -0.2180   -0.9630 n         1 MOL     -0.029809
     58 C19         7.4230    1.0930   -1.5580 c3        1 MOL      0.024938
     59 C20         7.3380    2.2630   -0.4450 c         1 MOL      0.440909
     60 O10         7.5730    3.4150   -0.8230 o         1 MOL     -0.536268
     61 C21         6.3970    1.4270   -2.7080 c3        1 MOL     -0.127371
     62 C22         4.9070    1.3290   -2.4230 c         1 MOL      0.764841
     63 O11         4.4760    1.5630   -1.2390 o         1 MOL     -0.717245
     64 O12         4.2540    0.7890   -3.2600 o         1 MOL     -0.717245
     65 H26         6.4330   -0.2890   -0.2770 hn        1 MOL     -0.029230
     66 H27         8.4610    1.0810   -1.8970 h1        1 MOL      0.043961
     67 H28         6.5800    0.7250   -3.5270 hc        1 MOL      0.029064
     68 H29         6.5640    2.4370   -3.0880 hc        1 MOL      0.029064
     69 N6          6.8180    1.9900    0.7910 n         1 MOL     -0.479638
     70 C23         6.6640    3.0070    1.8670 c3        1 MOL      0.091516
     71 C24         5.3240    3.8260    1.9250 c         1 MOL      0.359578
     72 O13         5.2210    4.7190    2.7700 o         1 MOL     -0.580615
     73 H30         6.5160    1.0650    1.0280 hn        1 MOL      0.297553
     74 H31         7.3870    3.8050    1.7250 h1        1 MOL      0.047980
     75 H32         6.9020    2.6310    2.8620 h1        1 MOL      0.047980
     76 N7          4.4400    3.5280    1.0050 n         1 MOL     -0.120785
     77 C25         3.1390    4.1650    0.8800 c3        1 MOL      0.058253
     78 C26         1.9690    3.1590    1.0070 c         1 MOL      0.621151
     79 O14         2.1800    1.9800    0.7420 o         1 MOL     -0.675336
     80 C27         3.0360    5.1410   -0.3280 c3        1 MOL     -0.050120
     81 C28         4.1600    6.1490   -0.3880 c3        1 MOL     -0.091258
     82 C29         4.0260    7.3030   -1.3290 c         1 MOL      0.726827
     83 N8          4.9680    8.1120   -1.5490 n         1 MOL     -0.801914
     84 O15         2.9640    7.6480   -1.7790 o         1 MOL     -0.601213
     85 H33         4.5790    2.7660    0.3580 hn        1 MOL      0.207128
     86 H34         2.9740    4.7060    1.8160 h1        1 MOL      0.021797
     87 H35         2.0690    5.6400   -0.3160 hc        1 MOL      0.000312
     88 H36         3.1700    4.5300   -1.2190 hc        1 MOL      0.000312
     89 H37         5.0500    5.5800   -0.6450 hc        1 MOL      0.028604
     90 H38         4.3460    6.5420    0.6060 hc        1 MOL      0.028604
     91 H39         5.8460    8.0690   -1.0560 hn        1 MOL      0.345612
     92 H40         4.8390    8.8840   -2.1930 hn        1 MOL      0.345612
     93 N9          0.7740    3.6520    1.3540 n         1 MOL     -0.514103
     94 C30        -0.3760    2.8160    1.5970 c3        1 MOL      0.115373
     95 C31        -1.3870    3.1410    0.4760 c         1 MOL      0.367868
     96 O16        -1.8660    4.2500    0.5520 o         1 MOL     -0.561720
     97 C32        -0.9470    3.1170    3.0170 c3        1 MOL      0.416630
     98 C33        -2.0470    2.2000    3.3650 c3        1 MOL     -0.357158
     99 C34         0.2850    3.1570    4.0150 c3        1 MOL     -0.357158
    100 H41         0.7320    4.6630    1.3210 hn        1 MOL      0.302893
    101 H42        -0.1080    1.7570    1.6080 h1        1 MOL      0.131443
    102 H43        -1.3840    4.1220    3.0510 hc        1 MOL     -0.085315
    103 H44        -2.9180    2.4230    2.7530 hc        1 MOL      0.064109
    104 H45        -1.6970    1.1930    3.1590 hc        1 MOL      0.064109
    105 H46        -2.3360    2.3540    4.4060 hc        1 MOL      0.064109
    106 H47        -0.0560    3.0110    5.0410 hc        1 MOL      0.064109
    107 H48         0.9910    2.3500    3.8160 hc        1 MOL      0.064109
    108 H49         0.7830    4.0960    3.8000 hc        1 MOL      0.064109
    109 N10        -1.7070    2.1660   -0.3560 n         1 MOL     -0.157777
    110 C35        -2.8130    2.2110   -1.3200 c3        1 MOL     -0.013604
    111 C36        -4.1290    1.9970   -0.5350 c         1 MOL      0.428671
    112 O17        -4.1570    1.7700    0.6670 o         1 MOL     -0.358328
    113 C37        -2.5870    1.0830   -2.3610 c3        1 MOL     -0.106298
    114 C38        -3.2820    1.3170   -3.6690 c         1 MOL      0.645114
    115 N11        -2.8550    0.7470   -4.7520 n         1 MOL     -0.771923
    116 O18        -4.2630    1.9820   -3.7160 o         1 MOL     -0.582573
    117 H50        -1.1790    1.3010   -0.3810 hn        1 MOL      0.100887
    118 H51        -2.7700    3.1990   -1.7620 h1        1 MOL      0.082361
    119 H52        -2.9910    0.2000   -1.8660 hc        1 MOL      0.053848
    120 H53        -1.5450    0.8760   -2.5940 hc        1 MOL      0.053848
    121 H54        -2.1330    0.0470   -4.7000 hn        1 MOL      0.377217
    122 H55        -3.5430    0.7710   -5.4970 hn        1 MOL      0.377217
    123 N12        -5.2700    2.0380   -1.2040 n         1 MOL     -0.555816
    124 C39        -6.6180    1.8170   -0.5730 c3        1 MOL      0.408589
    125 C40        -6.8820    0.3490   -0.2160 c         1 MOL      0.592514
    126 O19        -7.1620    0.0400    0.9370 o         1 MOL     -0.574047
    127 C41        -7.7450    2.3710   -1.4400 c3        1 MOL     -0.201698
    128 C42        -9.0850    2.0510   -0.8630 ca        1 MOL      0.099448
    129 C43        -9.4590    2.7300    0.3060 ca        1 MOL     -0.244601
    130 C44        -9.9880    1.1270   -1.3730 ca        1 MOL     -0.244601
    131 C45       -10.7590    2.5000    0.8780 ca        1 MOL     -0.165518
    132 C46       -11.2190    0.8180   -0.8180 ca        1 MOL     -0.165518
    133 C47       -11.6600    1.5860    0.3090 ca        1 MOL      0.223533
    134 O20       -12.8390    1.3480    0.9320 oh        1 MOL     -0.481581
    135 H56        -5.2010    2.2590   -2.1860 hn        1 MOL      0.265374
    136 H57        -6.5610    2.3420    0.3800 h1        1 MOL     -0.014748
    137 H58        -7.8040    2.0710   -2.4880 hc        1 MOL      0.059245
    138 H59        -7.5770    3.4430   -1.3790 hc        1 MOL      0.059245
    139 H60        -8.8240    3.4140    0.8580 ha        1 MOL      0.145896
    140 H61        -9.7510    0.5920   -2.2850 ha        1 MOL      0.145896
    141 H62       -11.0060    3.0330    1.7910 ha        1 MOL      0.124426
    142 H63       -11.8850    0.0680   -1.2050 ha        1 MOL      0.124426
    143 H64       -13.3600    0.7510    0.3930 ho        1 MOL      0.361818
    144 N13        -6.5830   -0.5570   -1.1000 n         1 MOL     -0.330817
    145 C48        -6.5870   -2.0120   -0.9240 c3        1 MOL     -0.187504
    146 C49        -5.5100   -2.4340    0.0890 c         1 MOL      0.499472
    147 O21        -5.5370   -3.5220    0.6690 o         1 MOL     -0.550450
    148 C50        -6.3130   -2.7950   -2.2400 c3        1 MOL     -0.014744
    149 C51        -5.0930   -2.2470   -2.9550 c3        1 MOL      0.020102
    150 C52        -4.9250   -2.8730   -4.3380 c         1 MOL      0.681584
    151 O22        -4.1250   -3.8430   -4.4970 o         1 MOL     -0.729941
    152 O23        -5.5630   -2.3540   -5.2520 o         1 MOL     -0.729941
    153 H65        -6.3850   -0.2560   -2.0410 hn        1 MOL      0.252760
    154 H66        -7.5030   -2.2580   -0.3800 h1        1 MOL      0.115500
    155 H67        -7.0970   -2.5890   -2.9700 hc        1 MOL      0.024565
    156 H68        -6.2470   -3.8720   -2.1080 hc        1 MOL      0.024565
    157 H69        -4.2090   -2.4840   -2.3560 hc        1 MOL     -0.050436
    158 H70        -5.1310   -1.1760   -3.1370 hc        1 MOL     -0.050436
    159 N14        -4.5370   -1.5560    0.5430 n         1 MOL     -0.099347
    160 C53        -3.6240   -1.8280    1.6420 c3        1 MOL      0.047008
    161 C54        -4.1480   -1.3700    2.9650 c         1 MOL      0.385029
    162 O24        -3.9430   -2.1320    3.9230 o         1 MOL     -0.542034
    163 C55        -2.2960   -1.1600    1.3070 c3        1 MOL     -0.020108
    164 C56        -1.6360   -1.8240    0.1480 c3        1 MOL      0.051589
    165 C57        -0.2060   -1.2560   -0.1120 c         1 MOL      0.567603
    166 O25         0.7330   -2.0930   -0.3210 o         1 MOL     -0.610292
    167 O26         0.0150   -0.0570   -0.1730 o         1 MOL     -0.610292
    168 H71        -4.6720   -0.6100    0.2090 hn        1 MOL      0.007290
    169 H72        -3.3500   -2.8760    1.7510 h1        1 MOL      0.079244
    170 H73        -1.6820   -1.3350    2.2000 hc        1 MOL      0.036203
    171 H74        -2.5050   -0.1090    1.1300 hc        1 MOL      0.036203
    172 H75        -2.3000   -1.6430   -0.7000 hc        1 MOL      0.002378
    173 H76        -1.6090   -2.9010    0.3030 hc        1 MOL      0.002378
    174 N15        -4.9560   -0.2970    3.0770 n         1 MOL     -0.055871
    175 C58        -5.8150    0.1570    4.2280 c3        1 MOL     -0.328886
    176 H77        -5.3830   -0.1980    5.1640 h1        1 MOL      0.118465
    177 H78        -5.8620    1.2460    4.2400 h1        1 MOL      0.118465
    178 H79        -6.8190   -0.2500    4.1140 h1        1 MOL      0.118465
    179 H80        -5.0150    0.2410    2.2260 hn        1 MOL      0.078291
    180 Ca1         2.4400    0.0390   -1.3620 Ca        1 MOL      1.723827
    181 O27         0.5580   -0.6820   -3.3100 oh        1 MOL     -0.816895
    182 H81         1.0110   -1.4690   -3.6310 ho        1 MOL      0.388679
    183 H82         0.4720   -0.1310   -4.0890 ho        1 MOL      0.388679
    184 O28         1.8160    2.2190   -2.9590 oh        1 MOL     -0.816895
    185 H83         2.0620    3.1130   -2.7330 ho        1 MOL      0.388679
    186 H84         2.0340    2.1370   -3.8960 ho        1 MOL      0.388679
@<TRIPOS>BOND
     1    1    2 1   
     2    1    4 1   
     3    1    5 1   
     4    1    6 1   
     5    2    3 2   
     6    2    7 1   
     7    7    8 1   
     8    7   15 1   
     9    8    9 1   
    10    8   11 1   
    11    8   16 1   
    12    9   10 2   
    13    9   19 1   
    14   11   12 1   
    15   11   17 1   
    16   11   18 1   
    17   12   13 1   
    18   12   14 1   
    19   19   20 1   
    20   19   27 1   
    21   20   21 1   
    22   20   23 1   
    23   20   28 1   
    24   21   22 2   
    25   21   38 1   
    26   23   24 1   
    27   23   25 1   
    28   23   29 1   
    29   24   26 1   
    30   24   30 1   
    31   24   31 1   
    32   25   32 1   
    33   25   33 1   
    34   25   34 1   
    35   26   35 1   
    36   26   36 1   
    37   26   37 1   
    38   38   39 1   
    39   38   46 1   
    40   39   40 1   
    41   39   42 1   
    42   39   47 1   
    43   40   41 2   
    44   40   50 1   
    45   42   43 1   
    46   42   48 1   
    47   42   49 1   
    48   43   44 1   
    49   43   45 1   
    50   50   51 1   
    51   50   54 1   
    52   51   52 1   
    53   51   55 1   
    54   51   56 1   
    55   52   53 2   
    56   52   57 1   
    57   57   58 1   
    58   57   65 1   
    59   58   59 1   
    60   58   61 1   
    61   58   66 1   
    62   59   60 2   
    63   59   69 1   
    64   61   62 1   
    65   61   67 1   
    66   61   68 1   
    67   62   63 1   
    68   62   64 1   
    69   69   70 1   
    70   69   73 1   
    71   70   71 1   
    72   70   74 1   
    73   70   75 1   
    74   71   72 2   
    75   71   76 1   
    76   76   77 1   
    77   76   85 1   
    78   77   78 1   
    79   77   80 1   
    80   77   86 1   
    81   78   79 2   
    82   78   93 1   
    83   80   81 1   
    84   80   87 1   
    85   80   88 1   
    86   81   82 1   
    87   81   89 1   
    88   81   90 1   
    89   82   83 1   
    90   82   84 2   
    91   83   91 1   
    92   83   92 1   
    93   93   94 1   
    94   93  100 1   
    95   94   95 1   
    96   94   97 1   
    97   94  101 1   
    98   95   96 2   
    99   95  109 1   
   100   97   98 1   
   101   97   99 1   
   102   97  102 1   
   103   98  103 1   
   104   98  104 1   
   105   98  105 1   
   106   99  106 1   
   107   99  107 1   
   108   99  108 1   
   109  109  110 1   
   110  109  117 1   
   111  110  111 1   
   112  110  113 1   
   113  110  118 1   
   114  111  112 2   
   115  111  123 1   
   116  113  114 1   
   117  113  119 1   
   118  113  120 1   
   119  114  115 1   
   120  114  116 2   
   121  115  121 1   
   122  115  122 1   
   123  123  124 1   
   124  123  135 1   
   125  124  125 1   
   126  124  127 1   
   127  124  136 1   
   128  125  126 2   
   129  125  144 1   
   130  127  128 1   
   131  127  137 1   
   132  127  138 1   
   133  128  129 ar  
   134  128  130 ar  
   135  129  131 ar  
   136  129  139 1   
   137  130  132 ar  
   138  130  140 1   
   139  131  133 ar  
   140  131  141 1   
   141  132  133 ar  
   142  132  142 1   
   143  133  134 1   
   144  134  143 1   
   145  144  145 1   
   146  144  153 1   
   147  145  146 1   
   148  145  148 1   
   149  145  154 1   
   150  146  147 2   
   151  146  159 1   
   152  148  149 1   
   153  148  155 1   
   154  148  156 1   
   155  149  150 1   
   156  149  157 1   
   157  149  158 1   
   158  150  151 1   
   159  150  152 1   
   160  159  160 1   
   161  159  168 1   
   162  160  161 1   
   163  160  163 1   
   164  160  169 1   
   165  161  162 2   
   166  161  174 1   
   167  163  164 1   
   168  163  170 1   
   169  163  171 1   
   170  164  165 1   
   171  164  172 1   
   172  164  173 1   
   173  165  166 1   
   174  165  167 1   
   175  174  175 1   
   176  174  179 1   
   177  175  176 1   
   178  175  177 1   
   179  175  178 1   
   180  181  182 1   
   181  181  183 1   
   182  184  185 1   
   183  184  186 1   
@<TRIPOS>SUBSTRUCTURE
     1 MOL         1 TEMP              0 ****  ****    0 ROOT
