@<TRIPOS>MOLECULE
MOL
  182   178     1     0     0
SMALL
resp


@<TRIPOS>ATOM
      1 C1          1.7350    2.4820    6.0460 c3        1 MOL     -0.292115
      2 C2          1.2980    2.1600    4.6000 c         1 MOL      0.717135
      3 O1          2.1520    1.7840    3.7880 o         1 MOL     -0.615871
      4 H1          1.4080    1.6830    6.7110 hc        1 MOL      0.076869
      5 H2          2.8210    2.5660    6.0880 hc        1 MOL      0.076869
      6 H3          1.2840    3.4230    6.3610 hc        1 MOL      0.076869
      7 N1         -0.0180    2.2180    4.2980 n         1 MOL     -0.550766
      8 C3         -0.5730    2.1390    2.9710 c3        1 MOL     -0.198341
      9 C4         -0.6620    3.5330    2.3360 c         1 MOL      0.562852
     10 O2         -1.4880    4.3800    2.6330 o         1 MOL     -0.525075
     11 C5         -1.9440    1.4610    3.1090 c3        1 MOL      0.068377
     12 C6         -2.7420    1.3570    1.8190 c         1 MOL      0.519150
     13 O3         -2.1670    1.5360    0.7010 o         1 MOL     -0.688497
     14 O4         -3.9230    1.0590    1.9730 o         1 MOL     -0.688497
     15 H4         -0.6270    2.4040    5.0890 hn        1 MOL      0.322066
     16 H5          0.0780    1.4390    2.4490 h1        1 MOL      0.116801
     17 H6         -2.5090    1.9440    3.9110 hc        1 MOL      0.029819
     18 H7         -1.8470    0.4630    3.5460 hc        1 MOL      0.029819
     19 N2          0.2750    3.8010    1.4490 n         1 MOL     -0.202128
     20 C7          0.6270    5.1310    0.9240 c3        1 MOL     -0.209078
     21 C8         -0.4540    5.5300   -0.0310 c         1 MOL      0.535366
     22 O5         -0.7260    6.7000   -0.0270 o         1 MOL     -0.549080
     23 C9          2.0220    4.9790    0.3290 c3        1 MOL     -0.085754
     24 C10         2.4970    6.3470   -0.1930 c3        1 MOL     -0.123238
     25 C11         3.9010    6.2180   -0.6840 c3        1 MOL     -0.041718
     26 C12         4.8660    5.9930    0.3750 c3        1 MOL      0.215372
     27 N3          6.2340    6.2230   -0.1730 n4        1 MOL     -0.469676
     28 H8          0.9470    3.0930    1.1780 hn        1 MOL      0.212702
     29 H9          0.6790    5.7910    1.7840 h1        1 MOL      0.141135
     30 H10         2.0450    4.2540   -0.4880 hc        1 MOL      0.096447
     31 H11         2.6370    4.7180    1.1950 hc        1 MOL      0.096447
     32 H12         2.3940    7.1330    0.5560 hc        1 MOL      0.088190
     33 H13         1.9260    6.5610   -1.0930 hc        1 MOL      0.088190
     34 H14         4.1380    7.2300   -1.0390 hc        1 MOL      0.015803
     35 H15         4.0040    5.4330   -1.4330 hc        1 MOL      0.015803
     36 H16         4.8250    4.9580    0.7270 hx        1 MOL      0.046836
     37 H17         4.6360    6.6250    1.2260 hx        1 MOL      0.046836
     38 H18         6.9360    6.1320    0.5500 hn        1 MOL      0.346887
     39 H19         6.4430    5.5520   -0.9030 hn        1 MOL      0.346887
     40 H20         6.3430    7.1170   -0.6220 hn        1 MOL      0.346887
     41 N4         -0.9960    4.6360   -0.9380 n         1 MOL     -0.454892
     42 C13        -2.0620    5.1480   -1.8060 c3        1 MOL      0.268373
     43 C14        -3.4930    4.8580   -1.2650 c         1 MOL      0.322834
     44 O6         -4.4650    5.2460   -1.9140 o         1 MOL     -0.517804
     45 C15        -1.8570    4.6710   -3.2700 c3        1 MOL     -0.261484
     46 C16        -1.9280    3.1340   -3.5160 c         1 MOL      0.846277
     47 O7         -2.0150    2.4370   -2.4730 o         1 MOL     -0.722366
     48 O8         -1.9220    2.6420   -4.6700 o         1 MOL     -0.722366
     49 H21        -0.6820    3.6780   -0.8910 hn        1 MOL      0.224852
     50 H22        -2.0430    6.2300   -1.9000 h1        1 MOL      0.059319
     51 H23        -0.8990    5.0200   -3.6350 hc        1 MOL      0.040575
     52 H24        -2.6100    5.2060   -3.8470 hc        1 MOL      0.040575
     53 N5         -3.5410    4.0860   -0.1620 n         1 MOL      0.009860
     54 C17        -4.8190    4.0610    0.5560 c3        1 MOL     -0.427901
     55 C18        -5.8450    3.0380    0.1000 c         1 MOL      0.656226
     56 O9         -7.0320    3.1370    0.3660 o         1 MOL     -0.595950
     57 H25        -2.6510    3.7720    0.1940 hn        1 MOL      0.138717
     58 H26        -5.2870    5.0360    0.4460 h1        1 MOL      0.164719
     59 H27        -4.5850    3.8120    1.5890 h1        1 MOL      0.164719
     60 N6         -5.3860    2.0530   -0.6220 n         1 MOL     -0.340065
     61 C19        -6.2290    1.0140   -1.2570 c3        1 MOL      0.046661
     62 C20        -6.6650   -0.1180   -0.2990 c         1 MOL      0.233642
     63 O10        -7.4710   -1.0070   -0.6730 o         1 MOL     -0.458754
     64 C21        -5.4510    0.5520   -2.5280 c3        1 MOL     -0.264831
     65 C22        -4.3690   -0.5060   -2.3040 c         1 MOL      0.635097
     66 N7         -4.4620   -1.5530   -3.0840 n         1 MOL     -0.619655
     67 O11        -3.4720   -0.3200   -1.4950 o         1 MOL     -1.107101
     68 H28        -4.3950    1.8880   -0.6150 hn        1 MOL      0.264148
     69 H29        -7.0940    1.4940   -1.7010 h1        1 MOL      0.124981
     70 H30        -4.9550    1.4040   -3.0040 hc        1 MOL      0.107478
     71 H31        -6.3080    0.1810   -3.0810 hc        1 MOL      0.107478
     72 H32        -5.2390   -1.6260   -3.7130 hn        1 MOL      0.335897
     73 H33        -3.6670   -2.1820   -3.1690 hn        1 MOL      0.335897
     74 N8         -6.0150   -0.1310    0.8880 n         1 MOL      0.009590
     75 C23        -6.2550   -1.1480    1.9060 c3        1 MOL     -0.572599
     76 C24        -5.0730   -2.2400    2.0070 c         1 MOL      0.819744
     77 O12        -5.1340   -3.1450    2.8030 o         1 MOL     -0.565950
     78 H34        -5.3540    0.5590    1.2230 hn        1 MOL      0.232012
     79 H35        -7.1170   -1.7580    1.6290 h1        1 MOL      0.197273
     80 H36        -6.5920   -0.7150    2.8460 h1        1 MOL      0.197273
     81 N9         -3.9900   -2.0380    1.1680 n         1 MOL     -1.217164
     82 C25        -2.9480   -3.1140    1.0730 c3        1 MOL      0.460404
     83 C26        -1.5280   -2.5050    0.9460 c         1 MOL      0.516112
     84 O13        -1.3150   -1.6420    0.1160 o         1 MOL     -0.683829
     85 C27        -3.2430   -3.9370   -0.2050 c3        1 MOL     -0.145896
     86 C28        -4.5640   -4.6670   -0.2270 ca        1 MOL      0.024936
     87 C29        -5.8250   -4.0510   -0.4320 ca        1 MOL     -0.141525
     88 C30        -4.5720   -6.1300   -0.0850 ca        1 MOL     -0.141525
     89 C31        -7.0570   -4.7470   -0.3790 ca        1 MOL     -0.286877
     90 C32        -5.7780   -6.8240   -0.2440 ca        1 MOL     -0.286877
     91 C33        -7.0300   -6.1380   -0.3230 ca        1 MOL      0.392984
     92 O14        -8.2140   -6.8090   -0.5120 oh        1 MOL     -0.479146
     93 H37        -3.9730   -1.2520    0.5410 hn        1 MOL      1.164203
     94 H38        -2.8980   -3.8640    1.8630 h1        1 MOL      0.017708
     95 H39        -2.4100   -4.6340   -0.2940 hc        1 MOL      0.032165
     96 H40        -3.0580   -3.2980   -1.0750 hc        1 MOL      0.032165
     97 H41        -5.8880   -2.9840   -0.5500 ha        1 MOL      0.111336
     98 H42        -3.6490   -6.6520    0.0990 ha        1 MOL      0.111336
     99 H43        -7.9900   -4.2120   -0.4710 ha        1 MOL      0.144972
    100 H44        -5.7970   -7.8910   -0.0940 ha        1 MOL      0.144972
    101 H45        -8.0930   -7.7530   -0.6420 ho        1 MOL      0.340834
    102 N10        -0.6610   -3.0070    1.7910 n         1 MOL     -0.567419
    103 C34         0.8040   -2.5810    1.8770 c3        1 MOL      0.050925
    104 C35         1.5480   -3.5080    0.9520 c         1 MOL      0.407250
    105 O15         1.8260   -4.6740    1.3340 o         1 MOL     -0.527719
    106 C36         1.2680   -2.6170    3.3350 c3        1 MOL      0.160693
    107 C37         0.3150   -1.8740    4.2810 c3        1 MOL      0.191732
    108 C38         2.7150   -2.0850    3.4820 c3        1 MOL     -0.198567
    109 C39         0.5580   -2.1600    5.7330 c3        1 MOL     -0.194663
    110 H46        -0.9380   -3.7230    2.4460 hn        1 MOL      0.300026
    111 H47         0.8450   -1.5510    1.5390 h1        1 MOL      0.074096
    112 H48         1.3070   -3.6560    3.6680 hc        1 MOL     -0.016259
    113 H49        -0.7300   -2.1490    4.1020 hc        1 MOL     -0.031327
    114 H50         0.4490   -0.8080    4.1220 hc        1 MOL     -0.031327
    115 H51         2.8830   -1.5710    4.4300 hc        1 MOL      0.043805
    116 H52         3.3760   -2.9290    3.3460 hc        1 MOL      0.043805
    117 H53         2.8820   -1.4650    2.5980 hc        1 MOL      0.043805
    118 H54        -0.0380   -3.0130    6.0550 hc        1 MOL      0.038311
    119 H55         1.6100   -2.3800    5.9190 hc        1 MOL      0.038311
    120 H56         0.2610   -1.2510    6.2560 hc        1 MOL      0.038311
    121 N11         1.9370   -3.0300   -0.2350 n         1 MOL     -0.074875
    122 C40         2.8280   -3.7130   -1.1300 c3        1 MOL     -0.332809
    123 C41         4.2210   -3.7660   -0.6670 c         1 MOL      0.534858
    124 O16         4.5880   -2.9680    0.1640 o         1 MOL     -0.415987
    125 C42         2.8750   -3.0980   -2.4880 c3        1 MOL      0.041211
    126 O17         3.3240   -1.7720   -2.5210 oh        1 MOL     -0.565155
    127 H57         1.6920   -2.0630   -0.4240 hn        1 MOL      0.349040
    128 H58         2.4820   -4.7430   -1.1940 h1        1 MOL      0.103513
    129 H59         1.9080   -3.1230   -2.9800 h1        1 MOL      0.078875
    130 H60         3.4610   -3.7640   -3.1210 h1        1 MOL      0.078875
    131 H61         2.7480   -1.2820   -1.9250 ho        1 MOL      0.375786
    132 N12         5.1040   -4.6120   -1.1900 n         1 MOL     -0.434375
    133 C43         6.5200   -4.6370   -0.7020 c3        1 MOL      0.016514
    134 C44         7.2830   -3.3000   -1.1210 c         1 MOL      0.530775
    135 O18         8.1230   -2.8670   -0.3950 o         1 MOL     -0.493322
    136 C45         7.3020   -5.9450   -1.0230 c3        1 MOL     -0.218066
    137 H62         4.8330   -5.3300   -1.8510 hn        1 MOL      0.294355
    138 H63         6.5130   -4.7550    0.3790 h1        1 MOL      0.115064
    139 H64         8.1750   -6.0290   -0.3840 hc        1 MOL      0.078130
    140 H65         6.7350   -6.8790   -0.9150 hc        1 MOL      0.078130
    141 H66         7.6010   -5.9750   -2.0650 hc        1 MOL      0.078130
    142 N13         6.9150   -2.6870   -2.2440 n         1 MOL     -0.458848
    143 C46         7.4490   -1.4770   -2.7360 c3        1 MOL      0.231595
    144 C47         7.1460   -0.3760   -1.6890 c         1 MOL      0.220688
    145 O19         8.0500    0.4990   -1.4330 o         1 MOL     -0.510337
    146 C48         6.8770   -1.1830   -4.1230 c3        1 MOL     -0.267148
    147 H67         6.0990   -3.0280   -2.7340 hn        1 MOL      0.243308
    148 H68         8.5210   -1.5730   -2.9260 h1        1 MOL      0.062574
    149 H69         5.8320   -0.9640   -3.9090 hc        1 MOL      0.078748
    150 H70         7.3630   -0.3000   -4.5310 hc        1 MOL      0.078748
    151 H71         7.1630   -1.9790   -4.8200 hc        1 MOL      0.078748
    152 N14         5.9530   -0.3960   -1.1270 n         1 MOL      0.018992
    153 C49         5.5420    0.5470   -0.0230 c3        1 MOL     -0.287036
    154 C50         6.1490    0.2000    1.3490 c         1 MOL      0.467980
    155 O20         6.3520    1.0700    2.2450 o         1 MOL     -0.571969
    156 C51         4.0060    0.4210    0.1250 c3        1 MOL     -0.015887
    157 C52         3.3170    1.1750   -1.0260 c3        1 MOL     -0.214523
    158 C53         1.8550    0.8520   -0.8150 c         1 MOL      0.874188
    159 O21         0.9870    1.6940   -0.5220 o         1 MOL     -0.829468
    160 O22         1.4930   -0.3430   -1.0410 o         1 MOL     -0.829468
    161 H72         5.2140   -1.0050   -1.4200 hn        1 MOL      0.211906
    162 H73         5.6380    1.6250   -0.1730 h1        1 MOL      0.118896
    163 H74         3.6970    1.0700    0.9540 hc        1 MOL      0.068576
    164 H75         3.7600   -0.6320    0.0080 hc        1 MOL      0.068576
    165 H76         3.6300    0.9370   -2.0340 hc        1 MOL      0.041499
    166 H77         3.4700    2.2400   -0.8510 hc        1 MOL      0.041499
    167 N15         6.4580   -1.0740    1.5370 n         1 MOL     -0.033113
    168 C54         6.7190   -1.5760    2.9100 c3        1 MOL     -0.286754
    169 H78         6.0100   -2.3690    3.1470 h1        1 MOL      0.116045
    170 H79         7.7340   -1.9680    2.9660 h1        1 MOL      0.116045
    171 H80         6.6030   -0.7610    3.6240 h1        1 MOL      0.116045
    172 H81         6.4310   -1.6830    0.7310 hn        1 MOL      0.084232
    173 Ca1        -1.0520    0.3340   -1.5070 Ca        1 MOL      1.865819
    174 O23         0.6600    1.1210   -3.3910 oh        1 MOL     -0.788496
    175 H82         0.9610    2.0220   -3.3750 ho        1 MOL      0.387085
    176 H83         0.7910    0.8380   -4.2970 ho        1 MOL      0.387085
    177 O24        -2.0310   -0.0570   -4.1290 oh        1 MOL     -0.788496
    178 H84        -2.0780    0.8770   -4.3230 ho        1 MOL      0.387085
    179 H85        -2.7710   -0.4450   -4.5990 ho        1 MOL      0.387085
    180 O25        -0.8240   -2.3210   -2.4200 oh        1 MOL     -0.788496
    181 H86        -0.9240   -2.1950   -3.3640 ho        1 MOL      0.387085
    182 H87        -0.6810   -3.2640   -2.3270 ho        1 MOL      0.387085
@<TRIPOS>BOND
     1    1    2 1   
     2    1    4 1   
     3    1    5 1   
     4    1    6 1   
     5    2    3 2   
     6    2    7 1   
     7    7    8 1   
     8    7   15 1   
     9    8    9 1   
    10    8   11 1   
    11    8   16 1   
    12    9   10 2   
    13    9   19 1   
    14   11   12 1   
    15   11   17 1   
    16   11   18 1   
    17   12   13 1   
    18   12   14 1   
    19   19   20 1   
    20   19   28 1   
    21   20   21 1   
    22   20   23 1   
    23   20   29 1   
    24   21   22 2   
    25   21   41 1   
    26   23   24 1   
    27   23   30 1   
    28   23   31 1   
    29   24   25 1   
    30   24   32 1   
    31   24   33 1   
    32   25   26 1   
    33   25   34 1   
    34   25   35 1   
    35   26   27 1   
    36   26   36 1   
    37   26   37 1   
    38   27   38 1   
    39   27   39 1   
    40   27   40 1   
    41   41   42 1   
    42   41   49 1   
    43   42   43 1   
    44   42   45 1   
    45   42   50 1   
    46   43   44 2   
    47   43   53 1   
    48   45   46 1   
    49   45   51 1   
    50   45   52 1   
    51   46   47 1   
    52   46   48 1   
    53   53   54 1   
    54   53   57 1   
    55   54   55 1   
    56   54   58 1   
    57   54   59 1   
    58   55   56 2   
    59   55   60 1   
    60   60   61 1   
    61   60   68 1   
    62   61   62 1   
    63   61   64 1   
    64   61   69 1   
    65   62   63 2   
    66   62   74 1   
    67   64   65 1   
    68   64   70 1   
    69   64   71 1   
    70   65   66 1   
    71   65   67 2   
    72   66   72 1   
    73   66   73 1   
    74   74   75 1   
    75   74   78 1   
    76   75   76 1   
    77   75   79 1   
    78   75   80 1   
    79   76   77 2   
    80   76   81 1   
    81   81   82 1   
    82   81   93 1   
    83   82   83 1   
    84   82   85 1   
    85   82   94 1   
    86   83   84 2   
    87   83  102 1   
    88   85   86 1   
    89   85   95 1   
    90   85   96 1   
    91   86   87 ar  
    92   86   88 ar  
    93   87   89 ar  
    94   87   97 1   
    95   88   90 ar  
    96   88   98 1   
    97   89   91 ar  
    98   89   99 1   
    99   90   91 ar  
   100   90  100 1   
   101   91   92 1   
   102   92  101 1   
   103  102  103 1   
   104  102  110 1   
   105  103  104 1   
   106  103  106 1   
   107  103  111 1   
   108  104  105 2   
   109  104  121 1   
   110  106  107 1   
   111  106  108 1   
   112  106  112 1   
   113  107  109 1   
   114  107  113 1   
   115  107  114 1   
   116  108  115 1   
   117  108  116 1   
   118  108  117 1   
   119  109  118 1   
   120  109  119 1   
   121  109  120 1   
   122  121  122 1   
   123  121  127 1   
   124  122  123 1   
   125  122  125 1   
   126  122  128 1   
   127  123  124 2   
   128  123  132 1   
   129  125  126 1   
   130  125  129 1   
   131  125  130 1   
   132  126  131 1   
   133  132  133 1   
   134  132  137 1   
   135  133  134 1   
   136  133  136 1   
   137  133  138 1   
   138  134  135 2   
   139  134  142 1   
   140  136  139 1   
   141  136  140 1   
   142  136  141 1   
   143  142  143 1   
   144  142  147 1   
   145  143  144 1   
   146  143  146 1   
   147  143  148 1   
   148  144  145 2   
   149  144  152 1   
   150  146  149 1   
   151  146  150 1   
   152  146  151 1   
   153  152  153 1   
   154  152  161 1   
   155  153  154 1   
   156  153  156 1   
   157  153  162 1   
   158  154  155 2   
   159  154  167 1   
   160  156  157 1   
   161  156  163 1   
   162  156  164 1   
   163  157  158 1   
   164  157  165 1   
   165  157  166 1   
   166  158  159 1   
   167  158  160 1   
   168  167  168 1   
   169  167  172 1   
   170  168  169 1   
   171  168  170 1   
   172  168  171 1   
   173  174  175 1   
   174  174  176 1   
   175  177  178 1   
   176  177  179 1   
   177  180  181 1   
   178  180  182 1   
@<TRIPOS>SUBSTRUCTURE
     1 MOL         1 TEMP              0 ****  ****    0 ROOT
