@<TRIPOS>MOLECULE
MOL
  189   185     1     0     0
SMALL
resp


@<TRIPOS>ATOM
      1 C1          0.7270    3.3220   -5.4030 c3        1 MOL     -0.449389
      2 C2          1.0520    2.4530   -4.1430 c         1 MOL      0.785441
      3 O1          0.2290    2.4560   -3.2550 o         1 MOL     -0.583682
      4 H1          0.1060    4.1690   -5.1100 hc        1 MOL      0.110211
      5 H2          1.6560    3.6880   -5.8410 hc        1 MOL      0.110211
      6 H3          0.1940    2.7170   -6.1340 hc        1 MOL      0.110211
      7 N1          2.2220    1.7830   -3.9990 n         1 MOL     -0.755614
      8 C3          2.6610    1.4250   -2.6710 c3        1 MOL      0.143534
      9 C4          3.1420    2.7620   -1.9540 c         1 MOL      0.444719
     10 O2          4.1390    3.3370   -2.3240 o         1 MOL     -0.529358
     11 C5          3.8290    0.4030   -2.6940 c3        1 MOL     -0.188085
     12 C6          4.3890    0.2040   -1.2250 c         1 MOL      0.895643
     13 O3          3.7090    0.2570   -0.2100 o         1 MOL     -0.735320
     14 O4          5.6410   -0.0880   -1.1700 o         1 MOL     -0.735320
     15 H4          2.9150    1.7850   -4.7330 hn        1 MOL      0.377595
     16 H5          1.8140    0.9960   -2.1400 h1        1 MOL      0.015258
     17 H6          4.5900    0.8610   -3.3200 hc        1 MOL      0.042473
     18 H7          3.4770   -0.5100   -3.1660 hc        1 MOL      0.042473
     19 N2          2.4940    3.2010   -0.8280 n         1 MOL     -0.187681
     20 C7          2.8450    4.5220   -0.2280 c3        1 MOL      0.140204
     21 C8          3.7920    4.4150    0.8940 c         1 MOL      0.426106
     22 O5          4.7850    5.1650    0.9200 o         1 MOL     -0.576115
     23 C9          1.5720    5.2400    0.3090 c3        1 MOL     -0.190331
     24 C10         0.5310    5.4810   -0.8570 c3        1 MOL      0.032512
     25 C11         1.1690    6.3970   -1.9060 c3        1 MOL     -0.089544
     26 C12         0.0830    6.8680   -2.8970 c3        1 MOL      0.072804
     27 N3          0.6480    8.0570   -3.7190 n4        1 MOL     -0.307612
     28 H8          1.7170    2.6960   -0.4320 hn        1 MOL      0.172628
     29 H9          3.3100    5.1980   -0.9480 h1        1 MOL      0.000241
     30 H10         1.7720    6.1970    0.7820 hc        1 MOL      0.046309
     31 H11         1.1290    4.6400    1.0980 hc        1 MOL      0.046309
     32 H12        -0.3090    6.0700   -0.4790 hc        1 MOL      0.025311
     33 H13         0.1070    4.5330   -1.1790 hc        1 MOL      0.025311
     34 H14         1.9700    5.8940   -2.4460 hc        1 MOL      0.056601
     35 H15         1.6360    7.2660   -1.4420 hc        1 MOL      0.056601
     36 H16        -0.8330    7.2490   -2.4470 hx        1 MOL      0.073075
     37 H17        -0.0730    6.0360   -3.5830 hx        1 MOL      0.073075
     38 H18         0.6260    8.9170   -3.2090 hn        1 MOL      0.300585
     39 H19         1.6120    7.9540   -4.0020 hn        1 MOL      0.300585
     40 H20         0.2510    8.1770   -4.6400 hn        1 MOL      0.300585
     41 N4          3.5380    3.4890    1.8230 n         1 MOL     -0.020845
     42 C13         4.2540    3.5980    3.0600 c3        1 MOL     -0.237978
     43 C14         5.5170    2.7550    3.1250 c         1 MOL      0.472896
     44 O6          6.2640    2.9230    4.1110 o         1 MOL     -0.531327
     45 C15         3.3600    3.2140    4.2420 c3        1 MOL     -0.184898
     46 C16         2.5090    1.9440    4.0750 c         1 MOL      0.834040
     47 O7          2.4560    1.2730    3.0210 o         1 MOL     -0.723414
     48 O8          1.8170    1.6100    5.0760 o         1 MOL     -0.723414
     49 H21         2.8280    2.7750    1.8250 hn        1 MOL      0.042356
     50 H22         4.4680    4.6450    3.2560 h1        1 MOL      0.143940
     51 H23         2.6290    4.0050    4.4100 hc        1 MOL      0.058239
     52 H24         3.9890    3.0470    5.1160 hc        1 MOL      0.058239
     53 N5          5.8620    2.0070    2.0730 n         1 MOL     -0.010716
     54 C17         7.1190    1.3390    1.7960 c3        1 MOL     -0.413145
     55 C18         7.2760   -0.0790    2.3760 c         1 MOL      0.764065
     56 O9          8.0350   -0.2450    3.3510 o         1 MOL     -0.584715
     57 H25         5.1860    1.9850    1.3220 hn        1 MOL      0.127986
     58 H26         7.8810    1.9880    2.2190 h1        1 MOL      0.138615
     59 H27         7.1880    1.3080    0.7130 h1        1 MOL      0.138615
     60 N6          6.6410   -1.0290    1.7420 n         1 MOL     -0.520784
     61 C19         6.6530   -2.4960    2.0190 c3        1 MOL      0.102306
     62 C20         6.5840   -3.2810    0.6880 c         1 MOL      0.404224
     63 O10         6.9080   -4.4500    0.6490 o         1 MOL     -0.532817
     64 C21         5.4790   -2.7600    2.9360 c3        1 MOL     -0.236542
     65 C22         4.1320   -2.2360    2.4680 c         1 MOL      0.622969
     66 O11         3.4360   -1.4780    3.1720 o         1 MOL     -0.623639
     67 O12         3.7080   -2.5670    1.3030 o         1 MOL     -0.623639
     68 H28         6.1990   -0.6170    0.9360 hn        1 MOL      0.148776
     69 H29         7.5620   -2.7800    2.5550 h1        1 MOL      0.097763
     70 H30         5.7370   -2.2510    3.8640 hc        1 MOL      0.083748
     71 H31         5.4000   -3.8320    3.1030 hc        1 MOL      0.083748
     72 N7          6.2980   -2.6830   -0.4930 n         1 MOL     -0.166821
     73 C23         6.2540   -3.1850   -1.8110 c3        1 MOL     -0.150756
     74 C24         4.9690   -3.8970   -2.1430 c         1 MOL      0.508885
     75 O13         4.9450   -4.7770   -3.0350 o         1 MOL     -0.585378
     76 H32         6.1240   -1.6870   -0.4440 hn        1 MOL      0.276335
     77 H33         6.9920   -3.9730   -1.9300 h1        1 MOL      0.085299
     78 H34         6.4390   -2.4000   -2.5560 h1        1 MOL      0.085299
     79 N8          3.9120   -3.5950   -1.4310 n         1 MOL      0.013538
     80 C25         2.5720   -4.1700   -1.5170 c3        1 MOL     -0.501311
     81 C26         1.4750   -3.1730   -1.4480 c         1 MOL      0.893016
     82 O14         1.6380   -2.1110   -0.8240 o         1 MOL     -0.746667
     83 C27         2.3460   -5.3910   -0.5960 c3        1 MOL      0.530551
     84 C28         3.2720   -6.5150   -0.9230 c3        1 MOL     -0.472158
     85 O15         2.4120   -4.9490    0.7530 oh        1 MOL     -0.661041
     86 H35         4.0020   -2.8180   -0.7900 hn        1 MOL     -0.004715
     87 H36         2.5140   -4.6080   -2.5180 h1        1 MOL      0.126688
     88 H37         1.3160   -5.7530   -0.6210 h1        1 MOL     -0.002932
     89 H38         3.0520   -4.2430    0.8520 ho        1 MOL      0.424261
     90 H39         4.2220   -6.3090   -0.4380 hc        1 MOL      0.126000
     91 H40         2.8870   -7.4160   -0.4560 hc        1 MOL      0.126000
     92 H41         3.2730   -6.6800   -2.0060 hc        1 MOL      0.126000
     93 N9          0.3140   -3.4770   -2.0530 n         1 MOL     -0.622272
     94 C29        -0.8860   -2.7260   -2.1970 c3        1 MOL      0.115299
     95 C30        -1.9710   -3.2660   -1.2960 c         1 MOL      0.531458
     96 O16        -2.4300   -4.4300   -1.4270 o         1 MOL     -0.559622
     97 C31        -1.3150   -2.5330   -3.6580 c3        1 MOL      0.148325
     98 C32        -0.1880   -2.2770   -4.6370 c3        1 MOL     -0.013807
     99 C33        -2.2990   -1.3940   -3.6900 c3        1 MOL     -0.346942
    100 C34         0.7580   -1.0620   -4.4850 c3        1 MOL     -0.112557
    101 H42         0.3080   -4.2980   -2.6300 hn        1 MOL      0.284931
    102 H43        -0.7280   -1.7360   -1.7770 h1        1 MOL      0.140709
    103 H44        -1.8560   -3.4450   -3.9240 hc        1 MOL     -0.012670
    104 H45        -0.5460   -2.3330   -5.6710 hc        1 MOL     -0.002882
    105 H46         0.5040   -3.1200   -4.5670 hc        1 MOL     -0.002882
    106 H47        -3.0620   -1.5730   -2.9230 hc        1 MOL      0.067656
    107 H48        -1.7370   -0.5050   -3.4190 hc        1 MOL      0.067656
    108 H49        -2.8140   -1.3880   -4.6500 hc        1 MOL      0.067656
    109 H50         0.3070   -0.1630   -4.9000 hc        1 MOL      0.057545
    110 H51         0.9840   -0.8980   -3.4380 hc        1 MOL      0.057545
    111 H52         1.6990   -1.2940   -4.9890 hc        1 MOL      0.057545
    112 N10        -2.3920   -2.4610   -0.3080 n         1 MOL     -0.189641
    113 C35        -3.6540   -2.7410    0.4260 c3        1 MOL     -0.076368
    114 C36        -4.9060   -2.3130   -0.3140 c         1 MOL      0.319874
    115 O17        -4.8750   -1.4840   -1.2060 o         1 MOL     -0.225096
    116 C37        -3.7250   -1.9270    1.7210 c3        1 MOL      0.326404
    117 C38        -2.6640   -2.4650    2.6660 c3        1 MOL     -0.534225
    118 O18        -3.4750   -0.5690    1.5470 oh        1 MOL     -0.493201
    119 H53        -2.0670   -1.5020   -0.2370 hn        1 MOL      0.024679
    120 H54        -3.7680   -3.7980    0.6170 h1        1 MOL      0.092894
    121 H55        -4.6960   -2.0510    2.1870 h1        1 MOL      0.004034
    122 H56        -2.5810   -0.4830    1.2100 ho        1 MOL      0.307447
    123 H57        -2.5870   -3.5480    2.6140 hc        1 MOL      0.147831
    124 H58        -1.7330   -1.9930    2.3550 hc        1 MOL      0.147831
    125 H59        -2.9880   -2.1930    3.6690 hc        1 MOL      0.147831
    126 N11        -6.0530   -2.8140    0.1300 n         1 MOL     -0.375611
    127 C39        -7.4180   -2.2890   -0.2870 c3        1 MOL     -0.034904
    128 C40        -7.4030   -0.7550   -0.3540 c         1 MOL      0.347165
    129 O19        -7.7780   -0.1790   -1.4130 o         1 MOL     -0.453462
    130 C41        -8.5660   -2.8220    0.6880 c3        1 MOL      0.251561
    131 C42        -8.8210   -4.2930    0.5770 c3        1 MOL     -0.448169
    132 O20        -8.2290   -2.5680    2.0280 oh        1 MOL     -0.625440
    133 H60        -5.9840   -3.3500    0.9830 hn        1 MOL      0.270931
    134 H61        -7.5530   -2.5500   -1.3290 h1        1 MOL      0.142270
    135 H62        -9.4690   -2.2640    0.4410 h1        1 MOL      0.040077
    136 H63        -9.0100   -2.5870    2.5790 ho        1 MOL      0.405147
    137 H64        -9.4710   -4.5610    1.3970 hc        1 MOL      0.137133
    138 H65        -9.1640   -4.5240   -0.4350 hc        1 MOL      0.137133
    139 H66        -7.8680   -4.8260    0.6400 hc        1 MOL      0.137133
    140 N12        -6.9640   -0.1140    0.7680 n         1 MOL     -0.412243
    141 C43        -7.0310    1.3760    0.8070 c3        1 MOL      0.014884
    142 C44        -5.9680    2.0600   -0.0900 c         1 MOL      0.301863
    143 O21        -6.2700    3.1930   -0.5150 o         1 MOL     -0.504184
    144 C45        -6.8750    1.8750    2.1710 c3        1 MOL     -0.011500
    145 C46        -7.9610    1.4720    3.1100 c3        1 MOL      0.146022
    146 C47        -7.5750    1.9820    4.5230 c3        1 MOL     -0.054485
    147 C48        -8.6670    2.1360    5.6090 c3        1 MOL      0.132566
    148 N13        -9.4730    0.9000    5.6910 n4        1 MOL     -0.328952
    149 H67        -6.7770   -0.6030    1.6280 hn        1 MOL      0.384990
    150 H68        -7.9340    1.7990    0.3590 h1        1 MOL      0.122796
    151 H69        -6.8070    2.9600    2.0690 hc        1 MOL      0.030933
    152 H70        -5.9710    1.5020    2.6650 hc        1 MOL      0.030933
    153 H71        -7.9980    0.3850    3.1680 hc        1 MOL     -0.068442
    154 H72        -8.9130    1.9130    2.8000 hc        1 MOL     -0.068442
    155 H73        -7.3320    3.0460    4.4990 hc        1 MOL      0.035595
    156 H74        -6.6930    1.4500    4.8860 hc        1 MOL      0.035595
    157 H75        -9.3810    2.9390    5.4440 hx        1 MOL      0.062272
    158 H76        -8.2350    2.3410    6.5870 hx        1 MOL      0.062272
    159 H77       -10.0100    0.8990    4.8300 hn        1 MOL      0.294124
    160 H78        -8.8810    0.1110    5.8760 hn        1 MOL      0.294124
    161 H79       -10.1980    0.9990    6.3840 hn        1 MOL      0.294124
    162 N14        -4.8420    1.4140   -0.3750 n         1 MOL     -0.049313
    163 C49        -3.9560    1.8710   -1.5230 c3        1 MOL     -0.081321
    164 C50        -4.5650    1.5510   -2.9430 c         1 MOL      0.431822
    165 O22        -4.4240    2.3140   -3.8790 o         1 MOL     -0.566873
    166 C51        -2.5410    1.2380   -1.3710 c3        1 MOL     -0.028091
    167 C52        -1.7470    1.9640   -0.3400 c3        1 MOL      0.036436
    168 C53        -0.5690    1.0450    0.0490 c         1 MOL      0.545181
    169 O23        -0.7390   -0.1570    0.4860 o         1 MOL     -0.594895
    170 O24         0.6650    1.4340   -0.0240 o         1 MOL     -0.594895
    171 H80        -4.6580    0.5740    0.1400 hn        1 MOL      0.054131
    172 H81        -3.8620    2.9560   -1.4630 h1        1 MOL      0.087820
    173 H82        -1.9910    1.3580   -2.3110 hc        1 MOL      0.077716
    174 H83        -2.7230    0.1970   -1.0990 hc        1 MOL      0.077716
    175 H84        -2.3140    2.1420    0.5730 hc        1 MOL     -0.010836
    176 H85        -1.4980    2.9700   -0.6810 hc        1 MOL     -0.010836
    177 N15        -5.3780    0.5110   -3.0950 n         1 MOL      0.029342
    178 C54        -6.0970    0.0580   -4.3010 c3        1 MOL     -0.334123
    179 H86        -6.7550    0.8530   -4.6510 h1        1 MOL      0.120430
    180 H87        -5.3770   -0.1880   -5.0820 h1        1 MOL      0.120430
    181 H88        -6.6900   -0.8240   -4.0620 h1        1 MOL      0.120430
    182 H89        -5.4520   -0.0200   -2.2440 hn        1 MOL      0.019084
    183 Ca1         1.8030   -0.5770    1.2870 Ca        1 MOL      1.772626
    184 O25         0.8870   -2.9740    2.0420 oh        1 MOL     -0.890101
    185 H90         1.2810   -3.7720    1.6940 ho        1 MOL      0.406530
    186 H91         0.4650   -3.2450    2.8530 ho        1 MOL      0.406530
    187 O26         0.3860   -0.2820    3.5940 oh        1 MOL     -0.890101
    188 H92         0.8200    0.4570    4.0070 ho        1 MOL      0.406530
    189 H93        -0.0810   -0.7150    4.3170 ho        1 MOL      0.406530
@<TRIPOS>BOND
     1    1    2 1   
     2    1    4 1   
     3    1    5 1   
     4    1    6 1   
     5    2    3 2   
     6    2    7 1   
     7    7    8 1   
     8    7   15 1   
     9    8    9 1   
    10    8   11 1   
    11    8   16 1   
    12    9   10 2   
    13    9   19 1   
    14   11   12 1   
    15   11   17 1   
    16   11   18 1   
    17   12   13 1   
    18   12   14 1   
    19   19   20 1   
    20   19   28 1   
    21   20   21 1   
    22   20   23 1   
    23   20   29 1   
    24   21   22 2   
    25   21   41 1   
    26   23   24 1   
    27   23   30 1   
    28   23   31 1   
    29   24   25 1   
    30   24   32 1   
    31   24   33 1   
    32   25   26 1   
    33   25   34 1   
    34   25   35 1   
    35   26   27 1   
    36   26   36 1   
    37   26   37 1   
    38   27   38 1   
    39   27   39 1   
    40   27   40 1   
    41   41   42 1   
    42   41   49 1   
    43   42   43 1   
    44   42   45 1   
    45   42   50 1   
    46   43   44 2   
    47   43   53 1   
    48   45   46 1   
    49   45   51 1   
    50   45   52 1   
    51   46   47 1   
    52   46   48 1   
    53   53   54 1   
    54   53   57 1   
    55   54   55 1   
    56   54   58 1   
    57   54   59 1   
    58   55   56 2   
    59   55   60 1   
    60   60   61 1   
    61   60   68 1   
    62   61   62 1   
    63   61   64 1   
    64   61   69 1   
    65   62   63 2   
    66   62   72 1   
    67   64   65 1   
    68   64   70 1   
    69   64   71 1   
    70   65   66 1   
    71   65   67 1   
    72   72   73 1   
    73   72   76 1   
    74   73   74 1   
    75   73   77 1   
    76   73   78 1   
    77   74   75 2   
    78   74   79 1   
    79   79   80 1   
    80   79   86 1   
    81   80   81 1   
    82   80   83 1   
    83   80   87 1   
    84   81   82 2   
    85   81   93 1   
    86   83   84 1   
    87   83   85 1   
    88   83   88 1   
    89   84   90 1   
    90   84   91 1   
    91   84   92 1   
    92   85   89 1   
    93   93   94 1   
    94   93  101 1   
    95   94   95 1   
    96   94   97 1   
    97   94  102 1   
    98   95   96 2   
    99   95  112 1   
   100   97   98 1   
   101   97   99 1   
   102   97  103 1   
   103   98  100 1   
   104   98  104 1   
   105   98  105 1   
   106   99  106 1   
   107   99  107 1   
   108   99  108 1   
   109  100  109 1   
   110  100  110 1   
   111  100  111 1   
   112  112  113 1   
   113  112  119 1   
   114  113  114 1   
   115  113  116 1   
   116  113  120 1   
   117  114  115 2   
   118  114  126 1   
   119  116  117 1   
   120  116  118 1   
   121  116  121 1   
   122  117  123 1   
   123  117  124 1   
   124  117  125 1   
   125  118  122 1   
   126  126  127 1   
   127  126  133 1   
   128  127  128 1   
   129  127  130 1   
   130  127  134 1   
   131  128  129 2   
   132  128  140 1   
   133  130  131 1   
   134  130  132 1   
   135  130  135 1   
   136  131  137 1   
   137  131  138 1   
   138  131  139 1   
   139  132  136 1   
   140  140  141 1   
   141  140  149 1   
   142  141  142 1   
   143  141  144 1   
   144  141  150 1   
   145  142  143 2   
   146  142  162 1   
   147  144  145 1   
   148  144  151 1   
   149  144  152 1   
   150  145  146 1   
   151  145  153 1   
   152  145  154 1   
   153  146  147 1   
   154  146  155 1   
   155  146  156 1   
   156  147  148 1   
   157  147  157 1   
   158  147  158 1   
   159  148  159 1   
   160  148  160 1   
   161  148  161 1   
   162  162  163 1   
   163  162  171 1   
   164  163  164 1   
   165  163  166 1   
   166  163  172 1   
   167  164  165 2   
   168  164  177 1   
   169  166  167 1   
   170  166  173 1   
   171  166  174 1   
   172  167  168 1   
   173  167  175 1   
   174  167  176 1   
   175  168  169 1   
   176  168  170 1   
   177  177  178 1   
   178  177  182 1   
   179  178  179 1   
   180  178  180 1   
   181  178  181 1   
   182  184  185 1   
   183  184  186 1   
   184  187  188 1   
   185  187  189 1   
@<TRIPOS>SUBSTRUCTURE
     1 MOL         1 TEMP              0 ****  ****    0 ROOT
