@<TRIPOS>MOLECULE
MOL
  189   185     1     0     0
SMALL
resp


@<TRIPOS>ATOM
      1 C1         -0.1640    2.7410   -4.8700 c3        1 MOL     -0.434144
      2 C2          0.4670    2.3120   -3.5260 c         1 MOL      0.650333
      3 O1         -0.0790    2.7180   -2.5090 o         1 MOL     -0.549355
      4 H1          0.6210    3.0780   -5.5480 hc        1 MOL      0.109038
      5 H2         -0.6870    1.8940   -5.3130 hc        1 MOL      0.109038
      6 H3         -0.8680    3.5550   -4.6990 hc        1 MOL      0.109038
      7 N1          1.7140    1.7650   -3.5000 n         1 MOL     -0.568984
      8 C3          2.6000    1.4910   -2.3340 c3        1 MOL      0.248213
      9 C4          3.4060    2.7440   -1.9570 c         1 MOL      0.360322
     10 O2          4.6560    2.7940   -2.0700 o         1 MOL     -0.468868
     11 C5          3.4760    0.2970   -2.5710 c3        1 MOL     -0.304222
     12 C6          4.2880   -0.1250   -1.3480 c         1 MOL      0.534625
     13 O3          3.8080    0.0460   -0.2070 o         1 MOL     -0.551287
     14 O4          5.4150   -0.5790   -1.6190 o         1 MOL     -0.551287
     15 H4          2.0970    1.5300   -4.4050 hn        1 MOL      0.304982
     16 H5          1.8700    1.3410   -1.5280 h1        1 MOL      0.130416
     17 H6          4.1830    0.4470   -3.3850 hc        1 MOL      0.078111
     18 H7          2.7040   -0.4730   -2.7060 hc        1 MOL      0.078111
     19 N2          2.7580    3.7330   -1.4400 n         1 MOL     -0.379284
     20 C7          3.3070    5.0190   -0.9780 c3        1 MOL     -0.035088
     21 C8          4.0480    4.9300    0.3010 c         1 MOL      0.472527
     22 O5          4.7940    5.8190    0.6270 o         1 MOL     -0.564993
     23 C9          2.2990    6.0790   -1.0550 c3        1 MOL      0.150375
     24 C10         1.5300    6.2020   -2.3640 c3        1 MOL     -0.002163
     25 C11         0.8980    7.5790   -2.2980 c3        1 MOL     -0.018075
     26 C12        -0.1350    7.7840   -3.3270 c3        1 MOL      0.069412
     27 N3         -0.8690    9.0870   -3.2860 n4        1 MOL     -0.380618
     28 H8          1.7710    3.5530   -1.3280 hn        1 MOL      0.288805
     29 H9          4.0750    5.2000   -1.7260 h1        1 MOL      0.107241
     30 H10         2.8830    6.9990   -0.9710 hc        1 MOL     -0.019128
     31 H11         1.6390    6.0670   -0.1820 hc        1 MOL     -0.019128
     32 H12         0.8440    5.3590   -2.4080 hc        1 MOL      0.011768
     33 H13         2.1950    6.2140   -3.2280 hc        1 MOL      0.011768
     34 H14         1.7350    8.2640   -2.4070 hc        1 MOL      0.025119
     35 H15         0.5470    7.7900   -1.2930 hc        1 MOL      0.025119
     36 H16        -0.8590    6.9710   -3.2750 hx        1 MOL      0.079017
     37 H17         0.2930    7.6800   -4.3290 hx        1 MOL      0.079017
     38 H18        -1.6300    9.0630   -3.9440 hn        1 MOL      0.329340
     39 H19        -1.4030    9.1760   -2.4300 hn        1 MOL      0.329340
     40 H20        -0.2830    9.8950   -3.3660 hn        1 MOL      0.329340
     41 N4          3.9320    3.8730    1.1140 n         1 MOL     -0.277233
     42 C13         4.7940    3.6330    2.2830 c3        1 MOL      0.114499
     43 C14         5.9370    2.6780    2.0250 c         1 MOL      0.393667
     44 O6          6.8820    2.6720    2.7430 o         1 MOL     -0.539971
     45 C15         3.8800    3.2380    3.4750 c3        1 MOL     -0.374857
     46 C16         2.8000    2.3050    3.1200 c         1 MOL      0.859034
     47 O7          1.6840    2.3530    3.7530 o         1 MOL     -0.750249
     48 O8          2.9410    1.3950    2.3010 o         1 MOL     -0.750249
     49 H21         3.3280    3.1410    0.7700 hn        1 MOL      0.154547
     50 H22         5.2630    4.5860    2.5500 h1        1 MOL      0.098597
     51 H23         3.5170    4.1330    3.9860 hc        1 MOL      0.098125
     52 H24         4.5270    2.7810    4.2200 hc        1 MOL      0.098125
     53 N5          5.9020    1.9320    0.9290 n         1 MOL      0.064097
     54 C17         7.0810    1.3070    0.3670 c3        1 MOL     -0.228740
     55 C18         7.4330   -0.0370    1.1950 c         1 MOL      0.533261
     56 O9          8.5920   -0.2870    1.4820 o         1 MOL     -0.576730
     57 H25         5.1200    2.0430    0.3020 hn        1 MOL      0.025810
     58 H26         7.9330    1.9760    0.3930 h1        1 MOL      0.106337
     59 H27         6.9210    0.9500   -0.6510 h1        1 MOL      0.106337
     60 N6          6.3980   -0.7870    1.6200 n         1 MOL     -0.205121
     61 C19         6.5740   -2.0830    2.3100 c3        1 MOL      0.069113
     62 C20         6.4780   -3.2600    1.2640 c         1 MOL      0.363089
     63 O10         6.7160   -4.4090    1.6650 o         1 MOL     -0.539156
     64 C21         5.4690   -2.1100    3.4070 c3        1 MOL     -0.198276
     65 C22         4.0730   -2.0920    2.9050 c         1 MOL      0.818913
     66 O11         3.2780   -1.4900    3.5970 o         1 MOL     -0.737961
     67 O12         3.7550   -2.5950    1.8540 o         1 MOL     -0.737961
     68 H28         5.5200   -0.5160    1.1810 hn        1 MOL      0.019400
     69 H29         7.5390   -2.2170    2.7920 h1        1 MOL      0.089254
     70 H30         5.6200   -1.1430    3.8860 hc        1 MOL      0.052083
     71 H31         5.6570   -2.9100    4.1140 hc        1 MOL      0.052083
     72 N7          6.2080   -3.0060   -0.0230 n         1 MOL     -0.125364
     73 C23         6.1770   -3.9560   -1.0990 c3        1 MOL     -0.077851
     74 C24         4.8330   -4.7300   -1.4060 c         1 MOL      0.494020
     75 O13         4.8230   -5.7460   -2.1320 o         1 MOL     -0.563461
     76 H32         5.9680   -2.0490   -0.2460 hn        1 MOL      0.119933
     77 H33         6.9380   -4.7040   -0.8600 h1        1 MOL      0.066987
     78 H34         6.5000   -3.5150   -2.0450 h1        1 MOL      0.066987
     79 N8          3.7090   -4.1900   -0.8640 n         1 MOL     -0.196773
     80 C25         2.3910   -4.6840   -1.2850 c3        1 MOL     -0.193923
     81 C26         1.3340   -3.5390   -1.3340 c         1 MOL      0.605579
     82 O14         1.5200   -2.4330   -0.7650 o         1 MOL     -0.663982
     83 C27         1.8450   -5.7600   -0.3530 c3        1 MOL      0.313292
     84 C28         2.6520   -7.0320   -0.3610 c3        1 MOL     -0.412150
     85 O15         1.7010   -5.3430    0.9480 oh        1 MOL     -0.590532
     86 H35         3.8070   -3.4420   -0.1830 hn        1 MOL      0.288343
     87 H36         2.4740   -5.0570   -2.3080 h1        1 MOL      0.119740
     88 H37         0.8250   -6.0450   -0.6340 h1        1 MOL     -0.004892
     89 H38         1.4790   -6.1230    1.4590 ho        1 MOL      0.400635
     90 H39         3.6680   -6.9340    0.0290 hc        1 MOL      0.114475
     91 H40         2.1480   -7.7630    0.2750 hc        1 MOL      0.114475
     92 H41         2.6030   -7.4770   -1.3530 hc        1 MOL      0.114475
     93 N9          0.2200   -3.7840   -2.0110 n         1 MOL     -0.427098
     94 C29        -0.9180   -2.8960   -2.0780 c3        1 MOL     -0.035670
     95 C30        -2.1000   -3.5980   -1.4140 c         1 MOL      0.391671
     96 O16        -2.3720   -4.7890   -1.7160 o         1 MOL     -0.556099
     97 C31        -1.2430   -2.5710   -3.5370 c3        1 MOL      0.260469
     98 C32        -0.0300   -2.2230   -4.4210 c3        1 MOL      0.174809
     99 C33        -2.3300   -1.4260   -3.5530 c3        1 MOL     -0.557680
    100 C34        -0.4010   -2.1110   -5.8980 c3        1 MOL     -0.158971
    101 H42         0.2250   -4.5970   -2.6130 hn        1 MOL      0.262947
    102 H43        -0.8360   -1.9020   -1.6270 h1        1 MOL      0.212215
    103 H44        -1.7150   -3.4650   -3.9490 hc        1 MOL     -0.033723
    104 H45         0.6900   -3.0400   -4.3320 hc        1 MOL     -0.049911
    105 H46         0.4330   -1.2890   -4.1000 hc        1 MOL     -0.049911
    106 H47        -3.1010   -1.4790   -2.7850 hc        1 MOL      0.111041
    107 H48        -1.7790   -0.5340   -3.2530 hc        1 MOL      0.111041
    108 H49        -2.7710   -1.3840   -4.5480 hc        1 MOL      0.111041
    109 H50         0.5140   -1.9990   -6.4640 hc        1 MOL      0.032143
    110 H51        -0.8510   -3.0520   -6.2390 hc        1 MOL      0.032143
    111 H52        -1.1450   -1.3340   -6.1130 hc        1 MOL      0.032143
    112 N10        -2.7310   -2.8990   -0.4750 n         1 MOL     -0.026940
    113 C35        -3.9240   -3.2560    0.3490 c3        1 MOL     -0.064623
    114 C36        -5.1660   -2.5580   -0.2040 c         1 MOL      0.204789
    115 O17        -5.0590   -1.6210   -1.0170 o         1 MOL     -0.310205
    116 C37        -3.6940   -2.6930    1.7920 c3        1 MOL      0.251001
    117 C38        -2.6300   -3.4930    2.5760 c3        1 MOL     -0.355449
    118 O18        -3.2330   -1.3440    1.8530 oh        1 MOL     -0.606013
    119 H53        -2.4360   -1.9350   -0.3800 hn        1 MOL      0.163008
    120 H54        -3.9580   -4.3410    0.3150 h1        1 MOL      0.091328
    121 H55        -4.6260   -2.7770    2.3560 h1        1 MOL      0.018406
    122 H56        -2.3280   -1.3650    1.5280 ho        1 MOL      0.409279
    123 H57        -3.0500   -4.4890    2.6880 hc        1 MOL      0.087865
    124 H58        -1.7500   -3.5750    1.9460 hc        1 MOL      0.087865
    125 H59        -2.4060   -3.1010    3.5750 hc        1 MOL      0.087865
    126 N11        -6.3710   -2.9710    0.0290 n         1 MOL     -0.154018
    127 C39        -7.6350   -2.3420   -0.4820 c3        1 MOL     -0.286559
    128 C40        -7.7410   -0.8660   -0.0980 c         1 MOL      0.399952
    129 O19        -8.3510   -0.0390   -0.8140 o         1 MOL     -0.457756
    130 C41        -8.9320   -3.0260   -0.0670 c3        1 MOL      0.355115
    131 C42        -9.0410   -4.4980   -0.6210 c3        1 MOL     -0.262925
    132 O20        -8.9810   -3.1130    1.3520 oh        1 MOL     -0.643145
    133 H60        -6.5090   -3.7670    0.6280 hn        1 MOL      0.257652
    134 H61        -7.6230   -2.3290   -1.5740 h1        1 MOL      0.162181
    135 H62        -9.7980   -2.5200   -0.4770 h1        1 MOL      0.045854
    136 H63        -9.8710   -3.2550    1.6630 ho        1 MOL      0.409095
    137 H64        -9.9080   -5.0190   -0.2240 hc        1 MOL      0.070076
    138 H65        -9.2140   -4.4820   -1.6980 hc        1 MOL      0.070076
    139 H66        -8.1420   -5.0500   -0.3400 hc        1 MOL      0.070076
    140 N12        -7.2390   -0.5380    1.1270 n         1 MOL     -0.280780
    141 C43        -7.0510    0.9100    1.5330 c3        1 MOL     -0.127709
    142 C44        -6.2340    1.6550    0.4850 c         1 MOL      0.323094
    143 O21        -6.8410    2.4980   -0.1490 o         1 MOL     -0.464572
    144 C45        -6.4760    1.0290    3.0090 c3        1 MOL      0.011051
    145 C46        -6.6990    2.4700    3.4850 c3        1 MOL     -0.060686
    146 C47        -6.3580    2.7180    4.9290 c3        1 MOL      0.028792
    147 C48        -6.6740    4.1640    5.4060 c3        1 MOL      0.070154
    148 N13        -6.7470    4.3470    6.8650 n4        1 MOL     -0.356237
    149 H67        -6.9470   -1.2670    1.7610 hn        1 MOL      0.237645
    150 H68        -8.0750    1.2780    1.5360 h1        1 MOL      0.125969
    151 H69        -5.4070    0.8220    2.9560 hc        1 MOL      0.028235
    152 H70        -7.0160    0.3320    3.6540 hc        1 MOL      0.028235
    153 H71        -7.7560    2.6760    3.3130 hc        1 MOL      0.024678
    154 H72        -6.1110    3.0890    2.8230 hc        1 MOL      0.024678
    155 H73        -5.3110    2.4400    5.0870 hc        1 MOL      0.020727
    156 H74        -6.9520    1.9810    5.4800 hc        1 MOL      0.020727
    157 H75        -7.6290    4.5130    5.0160 hx        1 MOL      0.072711
    158 H76        -5.9190    4.8230    4.9680 hx        1 MOL      0.072711
    159 H77        -7.1940    5.2170    7.1210 hn        1 MOL      0.293533
    160 H78        -7.3530    3.6170    7.1950 hn        1 MOL      0.293533
    161 H79        -5.8270    4.2670    7.2780 hn        1 MOL      0.293533
    162 N14        -4.9800    1.3140    0.3160 n         1 MOL      0.021380
    163 C49        -4.0910    2.0700   -0.6610 c3        1 MOL     -0.420776
    164 C50        -4.7340    2.1620   -2.1130 c         1 MOL      0.444461
    165 O22        -4.8140    3.2350   -2.7600 o         1 MOL     -0.552928
    166 C51        -2.7070    1.3210   -0.8120 c3        1 MOL      0.202319
    167 C52        -1.8020    1.4250    0.4200 c3        1 MOL     -0.134179
    168 C53        -0.6280    0.4940    0.4400 c         1 MOL      0.739077
    169 O23        -0.8540   -0.7090    0.5880 o         1 MOL     -0.763349
    170 O24         0.4580    0.9020    0.1300 o         1 MOL     -0.763349
    171 H80        -4.4690    0.8030    1.0220 hn        1 MOL      0.241242
    172 H81        -3.9580    3.1140   -0.4140 h1        1 MOL      0.150529
    173 H82        -2.1270    1.5500   -1.7150 hc        1 MOL      0.000588
    174 H83        -2.9990    0.2770   -0.9650 hc        1 MOL      0.000588
    175 H84        -2.3800    1.1030    1.2880 hc        1 MOL      0.004513
    176 H85        -1.5290    2.4620    0.5840 hc        1 MOL      0.004513
    177 N15        -5.1700    1.0180   -2.6090 n         1 MOL      0.012607
    178 C54        -5.6710    0.8350   -3.9500 c3        1 MOL     -0.347069
    179 H86        -4.8590    0.9720   -4.6630 h1        1 MOL      0.120626
    180 H87        -6.0770   -0.1710   -4.0520 h1        1 MOL      0.120626
    181 H88        -6.4560    1.5650   -4.1480 h1        1 MOL      0.120626
    182 H89        -5.1010    0.2270   -1.9800 hn        1 MOL      0.118851
    183 Ca1         1.9250   -0.7250    1.3360 Ca        1 MOL      1.763296
    184 O25         0.6710   -2.9360    1.9880 oh        1 MOL     -0.804022
    185 H90         0.5150   -3.2490    2.8760 ho        1 MOL      0.385928
    186 H91         0.7490   -3.7390    1.4570 ho        1 MOL      0.385928
    187 O26         0.5510   -0.1950    3.5830 oh        1 MOL     -0.804022
    188 H92         0.9120    0.6430    3.8680 ho        1 MOL      0.385928
    189 H93         0.0690   -0.5190    4.3410 ho        1 MOL      0.385928
@<TRIPOS>BOND
     1    1    2 1   
     2    1    4 1   
     3    1    5 1   
     4    1    6 1   
     5    2    3 2   
     6    2    7 1   
     7    7    8 1   
     8    7   15 1   
     9    8    9 1   
    10    8   11 1   
    11    8   16 1   
    12    9   10 2   
    13    9   19 1   
    14   11   12 1   
    15   11   17 1   
    16   11   18 1   
    17   12   13 1   
    18   12   14 1   
    19   19   20 1   
    20   19   28 1   
    21   20   21 1   
    22   20   23 1   
    23   20   29 1   
    24   21   22 2   
    25   21   41 1   
    26   23   24 1   
    27   23   30 1   
    28   23   31 1   
    29   24   25 1   
    30   24   32 1   
    31   24   33 1   
    32   25   26 1   
    33   25   34 1   
    34   25   35 1   
    35   26   27 1   
    36   26   36 1   
    37   26   37 1   
    38   27   38 1   
    39   27   39 1   
    40   27   40 1   
    41   41   42 1   
    42   41   49 1   
    43   42   43 1   
    44   42   45 1   
    45   42   50 1   
    46   43   44 2   
    47   43   53 1   
    48   45   46 1   
    49   45   51 1   
    50   45   52 1   
    51   46   47 1   
    52   46   48 1   
    53   53   54 1   
    54   53   57 1   
    55   54   55 1   
    56   54   58 1   
    57   54   59 1   
    58   55   56 2   
    59   55   60 1   
    60   60   61 1   
    61   60   68 1   
    62   61   62 1   
    63   61   64 1   
    64   61   69 1   
    65   62   63 2   
    66   62   72 1   
    67   64   65 1   
    68   64   70 1   
    69   64   71 1   
    70   65   66 1   
    71   65   67 1   
    72   72   73 1   
    73   72   76 1   
    74   73   74 1   
    75   73   77 1   
    76   73   78 1   
    77   74   75 2   
    78   74   79 1   
    79   79   80 1   
    80   79   86 1   
    81   80   81 1   
    82   80   83 1   
    83   80   87 1   
    84   81   82 2   
    85   81   93 1   
    86   83   84 1   
    87   83   85 1   
    88   83   88 1   
    89   84   90 1   
    90   84   91 1   
    91   84   92 1   
    92   85   89 1   
    93   93   94 1   
    94   93  101 1   
    95   94   95 1   
    96   94   97 1   
    97   94  102 1   
    98   95   96 2   
    99   95  112 1   
   100   97   98 1   
   101   97   99 1   
   102   97  103 1   
   103   98  100 1   
   104   98  104 1   
   105   98  105 1   
   106   99  106 1   
   107   99  107 1   
   108   99  108 1   
   109  100  109 1   
   110  100  110 1   
   111  100  111 1   
   112  112  113 1   
   113  112  119 1   
   114  113  114 1   
   115  113  116 1   
   116  113  120 1   
   117  114  115 2   
   118  114  126 1   
   119  116  117 1   
   120  116  118 1   
   121  116  121 1   
   122  117  123 1   
   123  117  124 1   
   124  117  125 1   
   125  118  122 1   
   126  126  127 1   
   127  126  133 1   
   128  127  128 1   
   129  127  130 1   
   130  127  134 1   
   131  128  129 2   
   132  128  140 1   
   133  130  131 1   
   134  130  132 1   
   135  130  135 1   
   136  131  137 1   
   137  131  138 1   
   138  131  139 1   
   139  132  136 1   
   140  140  141 1   
   141  140  149 1   
   142  141  142 1   
   143  141  144 1   
   144  141  150 1   
   145  142  143 2   
   146  142  162 1   
   147  144  145 1   
   148  144  151 1   
   149  144  152 1   
   150  145  146 1   
   151  145  153 1   
   152  145  154 1   
   153  146  147 1   
   154  146  155 1   
   155  146  156 1   
   156  147  148 1   
   157  147  157 1   
   158  147  158 1   
   159  148  159 1   
   160  148  160 1   
   161  148  161 1   
   162  162  163 1   
   163  162  171 1   
   164  163  164 1   
   165  163  166 1   
   166  163  172 1   
   167  164  165 2   
   168  164  177 1   
   169  166  167 1   
   170  166  173 1   
   171  166  174 1   
   172  167  168 1   
   173  167  175 1   
   174  167  176 1   
   175  168  169 1   
   176  168  170 1   
   177  177  178 1   
   178  177  182 1   
   179  178  179 1   
   180  178  180 1   
   181  178  181 1   
   182  184  185 1   
   183  184  186 1   
   184  187  188 1   
   185  187  189 1   
@<TRIPOS>SUBSTRUCTURE
     1 MOL         1 TEMP              0 ****  ****    0 ROOT
