@<TRIPOS>MOLECULE
MOL
  189   185     1     0     0
SMALL
resp


@<TRIPOS>ATOM
      1 C1         -0.4630    0.5400    6.7950 c3        1 MOL     -0.331727
      2 C2         -0.6420    0.6130    5.2590 c         1 MOL      0.741110
      3 O1          0.2220    1.2610    4.6410 o         1 MOL     -0.631027
      4 H1          0.1860    1.3520    7.1240 hc        1 MOL      0.089689
      5 H2         -1.4340    0.6330    7.2790 hc        1 MOL      0.089689
      6 H3         -0.0130   -0.4160    7.0640 hc        1 MOL      0.089689
      7 N1         -1.7090    0.1390    4.6570 n         1 MOL     -0.700504
      8 C3         -2.1810    0.4040    3.3440 c3        1 MOL      0.220082
      9 C4         -2.6350    1.9230    3.2660 c         1 MOL      0.518627
     10 O2         -3.5920    2.3740    3.9860 o         1 MOL     -0.564087
     11 C5         -3.3770   -0.5250    2.9390 c3        1 MOL     -0.162187
     12 C6         -4.0210   -0.1490    1.6050 c         1 MOL      0.698284
     13 O3         -3.2900   -0.0060    0.6310 o         1 MOL     -0.652313
     14 O4         -5.2550    0.0380    1.5550 o         1 MOL     -0.652313
     15 H4         -2.3890   -0.0620    5.3720 hn        1 MOL      0.348814
     16 H5         -1.3620    0.2180    2.6550 h1        1 MOL     -0.126845
     17 H6         -4.1000   -0.4460    3.7450 hc        1 MOL      0.040002
     18 H7         -3.0250   -1.5490    2.8560 hc        1 MOL      0.040002
     19 N2         -1.9610    2.7000    2.4550 n         1 MOL     -0.126095
     20 C7         -1.9880    4.1740    2.5560 c3        1 MOL     -0.082597
     21 C8         -3.1610    4.7980    1.7430 c         1 MOL      0.637931
     22 O5         -3.6640    5.8410    2.0250 o         1 MOL     -0.564045
     23 C9         -0.5950    4.7530    2.1840 c3        1 MOL     -0.110623
     24 C10        -0.3430    4.7740    0.6920 c3        1 MOL     -0.005424
     25 C11         1.1180    4.9640    0.3750 c3        1 MOL      0.013874
     26 C12         1.5900    4.6790   -1.0270 c3        1 MOL      0.288704
     27 N3          1.6380    5.7840   -1.9800 n4        1 MOL     -0.501953
     28 H8         -1.3090    2.2660    1.8120 hn        1 MOL      0.192954
     29 H9         -2.2090    4.4880    3.5670 h1        1 MOL      0.086115
     30 H10         0.1550    4.0500    2.5650 hc        1 MOL      0.063063
     31 H11        -0.5260    5.7470    2.6180 hc        1 MOL      0.063063
     32 H12        -1.0260    5.4920    0.2420 hc        1 MOL     -0.022997
     33 H13        -0.7500    3.8160    0.3480 hc        1 MOL     -0.022997
     34 H14         1.5070    4.1470    0.9880 hc        1 MOL      0.002423
     35 H15         1.5930    5.9070    0.6490 hc        1 MOL      0.002423
     36 H16         0.8580    3.9630   -1.3990 hx        1 MOL     -0.051637
     37 H17         2.6010    4.2980   -0.8960 hx        1 MOL     -0.051637
     38 H18         2.5700    6.1800   -1.9160 hn        1 MOL      0.353956
     39 H19         1.5390    5.4320   -2.9180 hn        1 MOL      0.353956
     40 H20         0.9280    6.4860   -1.8210 hn        1 MOL      0.353956
     41 N4         -3.5390    4.0590    0.6900 n         1 MOL     -0.573750
     42 C13        -4.3570    4.5420   -0.4660 c3        1 MOL      0.358594
     43 C14        -5.6140    3.7390   -0.8070 c         1 MOL      0.255253
     44 O6         -6.5350    4.2290   -1.5040 o         1 MOL     -0.540970
     45 C15        -3.5710    4.6570   -1.7520 c3        1 MOL     -0.540848
     46 C16        -2.5500    3.5280   -2.0990 c         1 MOL      0.939524
     47 O7         -2.6210    2.4250   -1.4490 o         1 MOL     -0.724781
     48 O8         -1.9020    3.5960   -3.1900 o         1 MOL     -0.724781
     49 H21        -3.0500    3.1800    0.6310 hn        1 MOL      0.219965
     50 H22        -4.6600    5.5610   -0.2530 h1        1 MOL      0.072121
     51 H23        -2.9890    5.5520   -1.5440 hc        1 MOL      0.125452
     52 H24        -4.2780    4.7500   -2.5780 hc        1 MOL      0.125452
     53 N5         -5.7680    2.5180   -0.3250 n         1 MOL      0.083025
     54 C17        -7.0810    1.9170   -0.1900 c3        1 MOL     -0.397781
     55 C18        -7.4710    0.8150   -1.1700 c         1 MOL      0.598517
     56 O9         -8.6120    0.3860   -1.2020 o         1 MOL     -0.558493
     57 H25        -4.9860    2.0380    0.0930 hn        1 MOL      0.081572
     58 H26        -7.8410    2.6920   -0.2760 h1        1 MOL      0.160745
     59 H27        -7.1530    1.6030    0.8570 h1        1 MOL      0.160745
     60 N6         -6.5090    0.3510   -1.9720 n         1 MOL     -0.355125
     61 C19        -6.5290   -0.9490   -2.6060 c3        1 MOL     -0.089403
     62 C20        -6.5940   -2.1920   -1.6610 c         1 MOL      0.406339
     63 O10        -6.7930   -3.3460   -2.0810 o         1 MOL     -0.533364
     64 C21        -5.4240   -1.0310   -3.6680 c3        1 MOL     -0.085980
     65 C22        -4.0680   -0.7720   -3.0780 c         1 MOL      0.632315
     66 O11        -3.7790   -1.2860   -1.9550 o         1 MOL     -0.668394
     67 O12        -3.2440   -0.0150   -3.6560 o         1 MOL     -0.668394
     68 H28        -5.6460    0.8710   -1.9020 hn        1 MOL      0.257747
     69 H29        -7.4910   -1.0460   -3.1230 h1        1 MOL      0.119761
     70 H30        -5.6360   -0.2720   -4.4250 hc        1 MOL      0.043976
     71 H31        -5.4340   -1.9570   -4.2490 hc        1 MOL      0.043976
     72 N7         -6.3100   -1.9620   -0.4160 n         1 MOL     -0.062453
     73 C23        -6.3670   -3.0530    0.5960 c3        1 MOL     -0.082183
     74 C24        -5.3000   -4.1020    0.3380 c         1 MOL      0.465857
     75 O13        -5.5950   -5.2920    0.3940 o         1 MOL     -0.523080
     76 H32        -6.0480   -1.0430   -0.0970 hn        1 MOL      0.171134
     77 H33        -7.3520   -3.5210    0.5350 h1        1 MOL      0.055995
     78 H34        -6.2160   -2.5330    1.5400 h1        1 MOL      0.055995
     79 N8         -4.0960   -3.6600   -0.0220 n         1 MOL     -0.128830
     80 C25        -2.9260   -4.5080   -0.1380 c3        1 MOL     -0.196658
     81 C26        -1.6510   -3.7310   -0.0160 c         1 MOL      0.548015
     82 O14        -1.7200   -2.4980   -0.2380 o         1 MOL     -0.572580
     83 C27        -2.8020   -5.0060   -1.6600 c3        1 MOL      0.571644
     84 C28        -3.7450   -6.1250   -1.9060 c3        1 MOL     -0.489099
     85 O15        -3.0080   -3.9400   -2.6040 oh        1 MOL     -0.634023
     86 H35        -3.8870   -2.6730   -0.0500 hn        1 MOL      0.131035
     87 H36        -2.9840   -5.3640    0.5330 h1        1 MOL      0.085638
     88 H37        -1.7750   -5.3500   -1.7310 h1        1 MOL     -0.066774
     89 H38        -3.3330   -3.1540   -2.1630 ho        1 MOL      0.374948
     90 H39        -4.6750   -5.6830   -2.2710 hc        1 MOL      0.121493
     91 H40        -3.3440   -6.6580   -2.7760 hc        1 MOL      0.121493
     92 H41        -3.8680   -6.7640   -1.0330 hc        1 MOL      0.121493
     93 N9         -0.4950   -4.3430    0.2550 n         1 MOL     -0.469860
     94 C29         0.6910   -3.5910    0.6370 c3        1 MOL      0.148315
     95 C30         1.7450   -3.7190   -0.4450 c         1 MOL      0.414412
     96 O16         2.2270   -4.8740   -0.7250 o         1 MOL     -0.551042
     97 C31         1.1440   -4.1580    2.0030 c3        1 MOL     -0.167870
     98 C32         0.1020   -4.0250    3.1560 c3        1 MOL      0.018766
     99 C33         2.4680   -3.5970    2.4190 c3        1 MOL      0.039812
    100 C34        -0.2090   -2.6070    3.6410 c3        1 MOL     -0.184559
    101 H42        -0.4060   -5.3440    0.3500 hn        1 MOL      0.291503
    102 H43         0.3710   -2.5580    0.7310 h1        1 MOL      0.020051
    103 H44         1.3390   -5.2220    1.8920 hc        1 MOL      0.072633
    104 H45         0.2780   -4.7390    3.9580 hc        1 MOL      0.017437
    105 H46        -0.8890   -4.4210    2.9130 hc        1 MOL      0.017437
    106 H47         2.9390   -4.0770    3.2830 hc        1 MOL     -0.010093
    107 H48         3.2130   -3.8030    1.6500 hc        1 MOL     -0.010093
    108 H49         2.3360   -2.5330    2.6310 hc        1 MOL     -0.010093
    109 H50        -1.0660   -2.6160    4.3030 hc        1 MOL      0.070378
    110 H51         0.6840   -2.1920    4.1040 hc        1 MOL      0.070378
    111 H52        -0.5160   -2.0380    2.7590 hc        1 MOL      0.070378
    112 N10         2.2400   -2.6020   -0.8900 n         1 MOL     -0.152390
    113 C35         3.4830   -2.4090   -1.6720 c3        1 MOL     -0.113103
    114 C36         4.6730   -2.4000   -0.7020 c         1 MOL      0.403977
    115 O17         4.5600   -2.2380    0.4870 o         1 MOL     -0.291748
    116 C37         3.4540   -0.9780   -2.2770 c3        1 MOL      0.185921
    117 C38         2.5130   -0.8470   -3.5110 c3        1 MOL     -0.272654
    118 O18         3.2710    0.0360   -1.3420 oh        1 MOL     -0.393059
    119 H53         1.7370   -1.8080   -0.5270 hn        1 MOL      0.217492
    120 H54         3.6700   -3.1210   -2.4740 h1        1 MOL      0.104731
    121 H55         4.4090   -0.7510   -2.7480 h1        1 MOL      0.054851
    122 H56         2.3220    0.1100   -1.2390 ho        1 MOL      0.222141
    123 H57         2.5930   -1.6660   -4.2270 hc        1 MOL      0.081219
    124 H58         1.4940   -0.6690   -3.1770 hc        1 MOL      0.081219
    125 H59         2.8760    0.0380   -4.0290 hc        1 MOL      0.081219
    126 N11         5.8460   -2.4670   -1.2890 n         1 MOL     -0.305401
    127 C39         7.1670   -2.1520   -0.6040 c3        1 MOL     -0.247244
    128 C40         7.0730   -0.8150    0.1010 c         1 MOL      0.269511
    129 O19         7.4250   -0.5990    1.2760 o         1 MOL     -0.450116
    130 C41         8.3620   -2.0960   -1.5660 c3        1 MOL      0.355195
    131 C42         8.7410   -3.4630   -2.1130 c3        1 MOL     -0.400622
    132 O20         8.0440   -1.3400   -2.7670 oh        1 MOL     -0.615945
    133 H60         5.9550   -2.5970   -2.2880 hn        1 MOL      0.228264
    134 H61         7.3930   -2.8810    0.1800 h1        1 MOL      0.179793
    135 H62         9.2510   -1.6730   -1.0880 h1        1 MOL      0.107569
    136 H63         7.3470   -1.8500   -3.1980 ho        1 MOL      0.377776
    137 H64         8.5360   -4.3390   -1.4930 hc        1 MOL      0.114765
    138 H65         8.2890   -3.7470   -3.0620 hc        1 MOL      0.114765
    139 H66         9.8130   -3.5300   -2.2770 hc        1 MOL      0.114765
    140 N12         6.4480    0.2060   -0.5050 n         1 MOL      0.000235
    141 C43         6.4220    1.5330    0.0990 c3        1 MOL     -0.049731
    142 C44         5.7030    1.6660    1.4500 c         1 MOL      0.417317
    143 O21         6.0180    2.4350    2.3030 o         1 MOL     -0.503820
    144 C45         5.8260    2.3840   -0.9750 c3        1 MOL     -0.185520
    145 C46         6.6470    2.3990   -2.2860 c3        1 MOL     -0.023646
    146 C47         6.3980    3.5850   -3.0870 c3        1 MOL     -0.077251
    147 C48         7.2800    3.6530   -4.3300 c3        1 MOL      0.043986
    148 N13         8.7240    3.9500   -3.9710 n4        1 MOL     -0.359775
    149 H67         6.2000    0.0810   -1.4760 hn        1 MOL      0.045238
    150 H68         7.4550    1.8630    0.2760 h1        1 MOL      0.062589
    151 H69         5.9400    3.3720   -0.5450 hc        1 MOL      0.083793
    152 H70         4.7840    2.1700   -1.2150 hc        1 MOL      0.083793
    153 H71         6.5860    1.4890   -2.8710 hc        1 MOL      0.042463
    154 H72         7.7100    2.3400   -2.0490 hc        1 MOL      0.042463
    155 H73         6.4760    4.5480   -2.5870 hc        1 MOL      0.052109
    156 H74         5.3720    3.5460   -3.4480 hc        1 MOL      0.052109
    157 H75         6.9850    4.4130   -5.0480 hx        1 MOL      0.092750
    158 H76         7.2630    2.6900   -4.8400 hx        1 MOL      0.092750
    159 H77         8.7860    4.9510   -3.8460 hn        1 MOL      0.311478
    160 H78         9.0570    3.5510   -3.0990 hn        1 MOL      0.311478
    161 H79         9.4750    3.5840   -4.5300 hn        1 MOL      0.311478
    162 N14         4.6600    0.8450    1.5340 n         1 MOL     -0.019842
    163 C49         3.8380    0.6300    2.7260 c3        1 MOL     -0.210562
    164 C50         4.4210   -0.4730    3.5980 c         1 MOL      0.574382
    165 O22         4.2230   -0.4650    4.8250 o         1 MOL     -0.564909
    166 C51         2.4710    0.2360    2.1630 c3        1 MOL     -0.004658
    167 C52         1.8050    1.4040    1.3460 c3        1 MOL      0.068390
    168 C53         0.6380    0.8800    0.5350 c         1 MOL      0.769771
    169 O23         0.7720   -0.1210   -0.2600 o         1 MOL     -0.711590
    170 O24        -0.4270    1.5440    0.4820 o         1 MOL     -0.711590
    171 H80         4.3220    0.5380    0.6330 hn        1 MOL     -0.025098
    172 H81         3.7830    1.4900    3.3870 h1        1 MOL      0.122825
    173 H82         1.8010   -0.0360    2.9830 hc        1 MOL      0.084680
    174 H83         2.5640   -0.6240    1.4980 hc        1 MOL      0.084680
    175 H84         2.5130    1.9610    0.7350 hc        1 MOL     -0.002240
    176 H85         1.4430    2.1270    2.0840 hc        1 MOL     -0.002240
    177 N15         5.1210   -1.4930    3.0330 n         1 MOL     -0.198329
    178 C54         5.8860   -2.4230    3.8190 c3        1 MOL     -0.285267
    179 H86         6.9390   -2.3460    3.5480 h1        1 MOL      0.106561
    180 H87         5.7660   -2.1910    4.8760 h1        1 MOL      0.106561
    181 H88         5.5350   -3.4360    3.6270 h1        1 MOL      0.106561
    182 H89         5.1090   -1.4490    2.0290 hn        1 MOL      0.199144
    183 Ca1        -1.6860    0.0270   -1.2770 Ca        1 MOL      1.676299
    184 O25        -0.5090    1.2380   -3.3280 oh        1 MOL     -0.836610
    185 H90        -0.9700    2.0710   -3.3720 ho        1 MOL      0.385788
    186 H91         0.2550    1.3590   -3.8840 ho        1 MOL      0.385788
    187 O26        -0.7790   -1.9300   -2.9600 oh        1 MOL     -0.836610
    188 H92        -0.4870   -1.8140   -3.8590 ho        1 MOL      0.385788
    189 H93        -1.5420   -2.5190   -3.0280 ho        1 MOL      0.385788
@<TRIPOS>BOND
     1    1    2 1   
     2    1    4 1   
     3    1    5 1   
     4    1    6 1   
     5    2    3 2   
     6    2    7 1   
     7    7    8 1   
     8    7   15 1   
     9    8    9 1   
    10    8   11 1   
    11    8   16 1   
    12    9   10 2   
    13    9   19 1   
    14   11   12 1   
    15   11   17 1   
    16   11   18 1   
    17   12   13 1   
    18   12   14 1   
    19   19   20 1   
    20   19   28 1   
    21   20   21 1   
    22   20   23 1   
    23   20   29 1   
    24   21   22 2   
    25   21   41 1   
    26   23   24 1   
    27   23   30 1   
    28   23   31 1   
    29   24   25 1   
    30   24   32 1   
    31   24   33 1   
    32   25   26 1   
    33   25   34 1   
    34   25   35 1   
    35   26   27 1   
    36   26   36 1   
    37   26   37 1   
    38   27   38 1   
    39   27   39 1   
    40   27   40 1   
    41   41   42 1   
    42   41   49 1   
    43   42   43 1   
    44   42   45 1   
    45   42   50 1   
    46   43   44 2   
    47   43   53 1   
    48   45   46 1   
    49   45   51 1   
    50   45   52 1   
    51   46   47 1   
    52   46   48 1   
    53   53   54 1   
    54   53   57 1   
    55   54   55 1   
    56   54   58 1   
    57   54   59 1   
    58   55   56 2   
    59   55   60 1   
    60   60   61 1   
    61   60   68 1   
    62   61   62 1   
    63   61   64 1   
    64   61   69 1   
    65   62   63 2   
    66   62   72 1   
    67   64   65 1   
    68   64   70 1   
    69   64   71 1   
    70   65   66 1   
    71   65   67 1   
    72   72   73 1   
    73   72   76 1   
    74   73   74 1   
    75   73   77 1   
    76   73   78 1   
    77   74   75 2   
    78   74   79 1   
    79   79   80 1   
    80   79   86 1   
    81   80   81 1   
    82   80   83 1   
    83   80   87 1   
    84   81   82 2   
    85   81   93 1   
    86   83   84 1   
    87   83   85 1   
    88   83   88 1   
    89   84   90 1   
    90   84   91 1   
    91   84   92 1   
    92   85   89 1   
    93   93   94 1   
    94   93  101 1   
    95   94   95 1   
    96   94   97 1   
    97   94  102 1   
    98   95   96 2   
    99   95  112 1   
   100   97   98 1   
   101   97   99 1   
   102   97  103 1   
   103   98  100 1   
   104   98  104 1   
   105   98  105 1   
   106   99  106 1   
   107   99  107 1   
   108   99  108 1   
   109  100  109 1   
   110  100  110 1   
   111  100  111 1   
   112  112  113 1   
   113  112  119 1   
   114  113  114 1   
   115  113  116 1   
   116  113  120 1   
   117  114  115 2   
   118  114  126 1   
   119  116  117 1   
   120  116  118 1   
   121  116  121 1   
   122  117  123 1   
   123  117  124 1   
   124  117  125 1   
   125  118  122 1   
   126  126  127 1   
   127  126  133 1   
   128  127  128 1   
   129  127  130 1   
   130  127  134 1   
   131  128  129 2   
   132  128  140 1   
   133  130  131 1   
   134  130  132 1   
   135  130  135 1   
   136  131  137 1   
   137  131  138 1   
   138  131  139 1   
   139  132  136 1   
   140  140  141 1   
   141  140  149 1   
   142  141  142 1   
   143  141  144 1   
   144  141  150 1   
   145  142  143 2   
   146  142  162 1   
   147  144  145 1   
   148  144  151 1   
   149  144  152 1   
   150  145  146 1   
   151  145  153 1   
   152  145  154 1   
   153  146  147 1   
   154  146  155 1   
   155  146  156 1   
   156  147  148 1   
   157  147  157 1   
   158  147  158 1   
   159  148  159 1   
   160  148  160 1   
   161  148  161 1   
   162  162  163 1   
   163  162  171 1   
   164  163  164 1   
   165  163  166 1   
   166  163  172 1   
   167  164  165 2   
   168  164  177 1   
   169  166  167 1   
   170  166  173 1   
   171  166  174 1   
   172  167  168 1   
   173  167  175 1   
   174  167  176 1   
   175  168  169 1   
   176  168  170 1   
   177  177  178 1   
   178  177  182 1   
   179  178  179 1   
   180  178  180 1   
   181  178  181 1   
   182  184  185 1   
   183  184  186 1   
   184  187  188 1   
   185  187  189 1   
@<TRIPOS>SUBSTRUCTURE
     1 MOL         1 TEMP              0 ****  ****    0 ROOT
