@<TRIPOS>MOLECULE
MOL
  172   171     1     0     0
SMALL
resp


@<TRIPOS>ATOM
      1 C1         -0.0860   -3.2420    5.8970 c3        1 MOL     -0.479558
      2 C2          0.2280   -2.9040    4.4630 c         1 MOL      0.732010
      3 O1         -0.4430   -3.5020    3.6000 o         1 MOL     -0.594093
      4 H1          0.7580   -2.9650    6.5280 hc        1 MOL      0.122058
      5 H2         -0.9720   -2.6930    6.2150 hc        1 MOL      0.122058
      6 H3         -0.2710   -4.3130    5.9870 hc        1 MOL      0.122058
      7 N1          1.2110   -2.0830    4.0790 n         1 MOL     -0.538361
      8 C3          1.6930   -1.8750    2.7260 c3        1 MOL      0.129652
      9 C4          2.2630   -3.1930    2.1650 c         1 MOL      0.331826
     10 O2          3.2380   -3.8610    2.7360 o         1 MOL     -0.554361
     11 C5          2.7600   -0.7950    2.8840 c3        1 MOL     -0.150007
     12 C6          3.5900   -0.4630    1.6560 c         1 MOL      0.591485
     13 O3          4.6670    0.2350    1.7920 o         1 MOL     -0.694821
     14 O4          3.1960   -0.8840    0.5700 o         1 MOL     -0.694821
     15 H4          1.8220   -1.7040    4.7920 hn        1 MOL      0.280800
     16 H5          0.8820   -1.5030    2.0910 h1        1 MOL      0.131985
     17 H6          3.4920   -1.1410    3.6190 hc        1 MOL      0.050992
     18 H7          2.1930    0.0520    3.2960 hc        1 MOL      0.050992
     19 N2          1.7270   -3.6760    1.0040 n         1 MOL     -0.105347
     20 C7          2.0060   -5.0890    0.4830 c3        1 MOL      0.063267
     21 C8          3.0230   -5.1840   -0.6600 c         1 MOL      0.441762
     22 O5          3.5710   -6.2810   -0.7800 o         1 MOL     -0.586166
     23 C9          0.6880   -5.6830    0.0220 c3        1 MOL     -0.221774
     24 H8          1.0960   -3.1130    0.4530 hn        1 MOL      0.284047
     25 H9          2.3940   -5.7140    1.2820 h1        1 MOL      0.072654
     26 H10         0.5620   -6.7630   -0.0430 hc        1 MOL      0.053926
     27 H11         0.0460   -5.4070    0.8540 hc        1 MOL      0.053926
     28 H12         0.3480   -5.2810   -0.9290 hc        1 MOL      0.053926
     29 N3          3.3240   -4.1530   -1.4130 n         1 MOL     -0.213430
     30 C10         4.6190   -4.0140   -2.1250 c3        1 MOL     -0.125869
     31 C11         5.7530   -3.2970   -1.3330 c         1 MOL      0.470728
     32 O6          6.8800   -3.1670   -1.7600 o         1 MOL     -0.546927
     33 C12         4.4330   -3.4420   -3.5690 c3        1 MOL      0.013792
     34 C13         3.6190   -2.1050   -3.6010 c         1 MOL      0.583998
     35 O7          3.7100   -1.4690   -4.6780 o         1 MOL     -0.687042
     36 O8          3.1410   -1.6300   -2.5600 o         1 MOL     -0.687042
     37 H13         2.7050   -3.3630   -1.2870 hn        1 MOL      0.193523
     38 H14         4.9490   -5.0360   -2.3420 h1        1 MOL      0.106479
     39 H15         3.9360   -4.1890   -4.1950 hc        1 MOL      0.010665
     40 H16         5.4010   -3.2490   -4.0330 hc        1 MOL      0.010665
     41 N4          5.4000   -2.7500   -0.1080 n         1 MOL     -0.061251
     42 C14         6.3460   -2.3000    0.9380 c3        1 MOL     -0.166479
     43 C15         7.1110   -1.0150    0.4430 c         1 MOL      0.485422
     44 O9          8.2140   -0.6720    0.9310 o         1 MOL     -0.584534
     45 H17         4.4320   -2.6370    0.1650 hn        1 MOL     -0.028357
     46 H18         7.0620   -3.0730    1.2340 h1        1 MOL      0.113189
     47 H19         5.7370   -2.0680    1.8080 h1        1 MOL      0.113189
     48 N5          6.4840   -0.2440   -0.4730 n         1 MOL     -0.265191
     49 C16         7.1370    0.8170   -1.2520 c3        1 MOL     -0.063299
     50 C17         7.1020    2.1340   -0.4280 c         1 MOL      0.423667
     51 O10         7.7580    3.1090   -0.8700 o         1 MOL     -0.579560
     52 C18         6.3850    0.9230   -2.6350 c3        1 MOL     -0.359239
     53 C19         5.0510    1.6060   -2.5430 c         1 MOL      0.778075
     54 N6          4.8720    2.7140   -3.2200 n         1 MOL     -0.770021
     55 O11         4.2200    1.1990   -1.7560 o         1 MOL     -0.669185
     56 H20         5.7210   -0.7200   -0.9540 hn        1 MOL      0.338358
     57 H21         8.1570    0.5240   -1.5150 h1        1 MOL      0.134752
     58 H22         6.2320   -0.0080   -3.1670 hc        1 MOL      0.122757
     59 H23         6.9410    1.6270   -3.2620 hc        1 MOL      0.122757
     60 H24         5.5300    3.0620   -3.9080 hn        1 MOL      0.359276
     61 H25         4.0770    3.2680   -2.9480 hn        1 MOL      0.359276
     62 N7          6.4460    2.2920    0.7450 n         1 MOL     -0.106416
     63 C20         6.3790    3.3330    1.7090 c3        1 MOL     -0.265410
     64 C21         5.0860    4.1820    1.6490 c         1 MOL      0.617705
     65 O12         4.9680    5.1200    2.3340 o         1 MOL     -0.568416
     66 H26         5.9680    1.4660    1.0630 hn        1 MOL      0.251367
     67 H27         7.2350    4.0160    1.7250 h1        1 MOL      0.122850
     68 H28         6.4530    2.8580    2.6920 h1        1 MOL      0.122850
     69 N8          4.1250    3.8740    0.7420 n         1 MOL     -0.376270
     70 C22         2.7510    4.4020    0.9000 c3        1 MOL      0.053530
     71 C23         1.6640    3.2770    0.8800 c         1 MOL      0.454615
     72 O13         1.9860    2.1690    0.3390 o         1 MOL     -0.405742
     73 C24         2.3170    5.3540   -0.2800 c3        1 MOL      0.344975
     74 C25         2.5010    6.8040    0.1250 c3        1 MOL     -0.437177
     75 O14         3.0040    5.1480   -1.5030 oh        1 MOL     -0.604363
     76 H29         4.1180    3.1530    0.0310 hn        1 MOL      0.166003
     77 H30         2.7280    4.9090    1.8620 h1        1 MOL      0.069770
     78 H31         1.2390    5.2650   -0.4350 h1        1 MOL      0.072142
     79 H32         3.9440    5.2660   -1.3160 ho        1 MOL      0.385216
     80 H33         2.1860    7.3880   -0.7280 hc        1 MOL      0.101287
     81 H34         2.0080    7.0780    1.0600 hc        1 MOL      0.101287
     82 H35         3.5740    7.0070    0.1510 hc        1 MOL      0.101287
     83 N9          0.4890    3.5850    1.4460 n         1 MOL     -0.469095
     84 C26        -0.6870    2.7180    1.5230 c3        1 MOL      0.046709
     85 C27        -1.6250    2.9360    0.2570 c         1 MOL      0.390454
     86 O15        -2.1770    4.0450    0.1680 o         1 MOL     -0.582472
     87 C28        -1.4100    2.8990    2.9060 c3        1 MOL     -0.013038
     88 C29        -0.5900    2.2850    4.0350 c3        1 MOL      0.283953
     89 C30        -2.8440    2.4100    3.0370 c3        1 MOL     -0.113608
     90 C31        -1.1880    2.5370    5.4670 c3        1 MOL     -0.255222
     91 H36         0.2540    4.5370    1.7030 hn        1 MOL      0.273852
     92 H37        -0.2920    1.6990    1.5010 h1        1 MOL      0.085045
     93 H38        -1.4430    3.9740    3.0840 hc        1 MOL      0.033557
     94 H39         0.3370    2.8660    4.0200 hc        1 MOL     -0.077295
     95 H40        -0.3380    1.2350    3.9180 hc        1 MOL     -0.077295
     96 H41        -3.4470    2.6150    2.1540 hc        1 MOL      0.022954
     97 H42        -2.9030    1.3500    3.2700 hc        1 MOL      0.022954
     98 H43        -3.4380    2.9220    3.8050 hc        1 MOL      0.022954
     99 H44        -1.3110    3.6000    5.6680 hc        1 MOL      0.048365
    100 H45        -2.1020    1.9450    5.5850 hc        1 MOL      0.048365
    101 H46        -0.5310    2.0750    6.2060 hc        1 MOL      0.048365
    102 N10        -1.8250    1.9930   -0.5800 n         1 MOL     -0.116722
    103 C32        -2.8640    1.8120   -1.6040 c3        1 MOL      0.099638
    104 C33        -4.1680    1.4000   -0.9780 c         1 MOL      0.540398
    105 O16        -4.2440    0.9450    0.1680 o         1 MOL     -0.392565
    106 C34        -2.4050    0.9110   -2.7860 c3        1 MOL     -0.335148
    107 C35        -1.0450    1.2900   -3.3400 c         1 MOL      0.768433
    108 O17        -0.0310    0.6790   -2.9800 o         1 MOL     -0.700869
    109 O18        -0.9780    2.1460   -4.2450 o         1 MOL     -0.700869
    110 H47        -1.2340    1.2050   -0.3810 hn        1 MOL      0.076819
    111 H48        -3.0880    2.8020   -2.0170 h1        1 MOL      0.036171
    112 H49        -3.1040    1.0890   -3.6010 hc        1 MOL      0.114897
    113 H50        -2.4930   -0.1270   -2.4590 hc        1 MOL      0.114897
    114 N11        -5.2950    1.5200   -1.7130 n         1 MOL     -0.707675
    115 C36        -6.7140    1.1880   -1.1700 c3        1 MOL      0.325470
    116 C37        -6.8530   -0.3370   -0.9040 c         1 MOL      0.339400
    117 O19        -7.3550   -0.7270    0.1410 o         1 MOL     -0.498566
    118 C38        -7.8290    1.7650   -2.0240 c3        1 MOL     -0.389366
    119 C39        -9.1640    1.4910   -1.4800 ca        1 MOL      0.244896
    120 C40        -9.7910    2.2110   -0.3760 ca        1 MOL     -0.269509
    121 C41        -9.9290    0.5080   -2.1300 ca        1 MOL     -0.269509
    122 C42       -11.0990    1.8330    0.0610 ca        1 MOL     -0.026633
    123 C43       -11.2740    0.2160   -1.7610 ca        1 MOL     -0.026633
    124 C44       -11.8820    0.9310   -0.6960 ca        1 MOL     -0.191488
    125 H51        -5.1880    1.8240   -2.6740 hn        1 MOL      0.354966
    126 H52        -6.8280    1.6070   -0.1760 h1        1 MOL      0.092359
    127 H53        -7.6130    1.4830   -3.0590 hc        1 MOL      0.118242
    128 H54        -7.6550    2.8310   -2.1950 hc        1 MOL      0.118242
    129 H55        -9.1990    3.0150    0.0270 ha        1 MOL      0.139441
    130 H56        -9.3920   -0.0670   -2.8620 ha        1 MOL      0.139441
    131 H57       -11.5490    2.2820    0.9380 ha        1 MOL      0.099767
    132 H58       -11.8590   -0.5500   -2.2370 ha        1 MOL      0.099767
    133 H59       -12.9070    0.6680   -0.5180 ha        1 MOL      0.121222
    134 N12        -6.1550   -1.2470   -1.6560 n         1 MOL     -0.020852
    135 C45        -5.9530   -2.6750   -1.2950 c3        1 MOL      0.112604
    136 C46        -5.0710   -2.8730    0.0200 c         1 MOL      0.279018
    137 O20        -5.0280   -3.9800    0.5220 o         1 MOL     -0.513939
    138 C47        -5.2930   -3.3360   -2.4620 c3        1 MOL     -0.237172
    139 C48        -5.8110   -2.5410   -3.6530 c3        1 MOL      0.079236
    140 C49        -5.8970   -1.1760   -3.0810 c3        1 MOL      0.061803
    141 H60        -6.9670   -3.0550   -1.1200 h1        1 MOL      0.039516
    142 H61        -4.2100   -3.2770   -2.3630 hc        1 MOL      0.097619
    143 H62        -5.6510   -4.3700   -2.5330 hc        1 MOL      0.097619
    144 H63        -5.1090   -2.6050   -4.4770 hc        1 MOL      0.002888
    145 H64        -6.7430   -2.9150   -4.0790 hc        1 MOL      0.002888
    146 H65        -4.9490   -0.6450   -3.1740 h1        1 MOL     -0.042028
    147 H66        -6.7470   -0.6550   -3.5250 h1        1 MOL     -0.042028
    148 N13        -4.5790   -1.7870    0.5820 n         1 MOL     -0.135072
    149 C50        -3.8440   -1.8300    1.9090 c3        1 MOL      0.032270
    150 C51        -4.5040   -0.9830    3.0190 c         1 MOL      0.375802
    151 O21        -4.4090   -1.3700    4.1900 o         1 MOL     -0.556739
    152 C52        -2.3800   -1.3340    1.5460 c3        1 MOL      0.030938
    153 C53        -1.7000   -2.0790    0.3690 c3        1 MOL      0.184513
    154 C54        -0.4160   -1.3930   -0.0980 c         1 MOL      0.532693
    155 O22        -0.2100   -0.2010    0.1320 o         1 MOL     -0.733512
    156 O23         0.3940   -2.0860   -0.7540 o         1 MOL     -0.733512
    157 H67        -4.6210   -0.8810    0.1240 hn        1 MOL      0.042245
    158 H68        -3.7190   -2.8140    2.3540 h1        1 MOL      0.094878
    159 H69        -1.7740   -1.4570    2.4440 hc        1 MOL      0.004591
    160 H70        -2.3940   -0.2930    1.2100 hc        1 MOL      0.004591
    161 H71        -2.3060   -2.1380   -0.5350 hc        1 MOL     -0.036628
    162 H72        -1.4560   -3.0940    0.6780 hc        1 MOL     -0.036628
    163 N14        -5.3630   -0.0830    2.6610 n         1 MOL     -0.022286
    164 C55        -6.2790    0.5680    3.5970 c3        1 MOL     -0.065189
    165 H73        -7.2950    0.5150    3.2070 h1        1 MOL      0.040898
    166 H74        -6.2320    0.0640    4.5620 h1        1 MOL      0.040898
    167 H75        -5.9920    1.6130    3.7190 h1        1 MOL      0.040898
    168 H76        -5.4690    0.1450    1.6800 hn        1 MOL      0.072372
    169 Ca1         1.8770    0.1220   -1.3330 Ca        1 MOL      1.738274
    170 O24         1.6960    2.6790   -2.5460 oh        1 MOL     -0.920940
    171 H77         2.0000    3.5830   -2.4990 ho        1 MOL      0.412356
    172 H78         1.0920    2.6720   -3.2980 ho        1 MOL      0.412356
@<TRIPOS>BOND
     1    1    2 1   
     2    1    4 1   
     3    1    5 1   
     4    1    6 1   
     5    2    3 2   
     6    2    7 1   
     7    7    8 1   
     8    7   15 1   
     9    8    9 1   
    10    8   11 1   
    11    8   16 1   
    12    9   10 2   
    13    9   19 1   
    14   11   12 1   
    15   11   17 1   
    16   11   18 1   
    17   12   13 1   
    18   12   14 1   
    19   19   20 1   
    20   19   24 1   
    21   20   21 1   
    22   20   23 1   
    23   20   25 1   
    24   21   22 2   
    25   21   29 1   
    26   23   26 1   
    27   23   27 1   
    28   23   28 1   
    29   29   30 1   
    30   29   37 1   
    31   30   31 1   
    32   30   33 1   
    33   30   38 1   
    34   31   32 2   
    35   31   41 1   
    36   33   34 1   
    37   33   39 1   
    38   33   40 1   
    39   34   35 1   
    40   34   36 1   
    41   41   42 1   
    42   41   45 1   
    43   42   43 1   
    44   42   46 1   
    45   42   47 1   
    46   43   44 2   
    47   43   48 1   
    48   48   49 1   
    49   48   56 1   
    50   49   50 1   
    51   49   52 1   
    52   49   57 1   
    53   50   51 2   
    54   50   62 1   
    55   52   53 1   
    56   52   58 1   
    57   52   59 1   
    58   53   54 1   
    59   53   55 2   
    60   54   60 1   
    61   54   61 1   
    62   62   63 1   
    63   62   66 1   
    64   63   64 1   
    65   63   67 1   
    66   63   68 1   
    67   64   65 2   
    68   64   69 1   
    69   69   70 1   
    70   69   76 1   
    71   70   71 1   
    72   70   73 1   
    73   70   77 1   
    74   71   72 2   
    75   71   83 1   
    76   73   74 1   
    77   73   75 1   
    78   73   78 1   
    79   74   80 1   
    80   74   81 1   
    81   74   82 1   
    82   75   79 1   
    83   83   84 1   
    84   83   91 1   
    85   84   85 1   
    86   84   87 1   
    87   84   92 1   
    88   85   86 2   
    89   85  102 1   
    90   87   88 1   
    91   87   89 1   
    92   87   93 1   
    93   88   90 1   
    94   88   94 1   
    95   88   95 1   
    96   89   96 1   
    97   89   97 1   
    98   89   98 1   
    99   90   99 1   
   100   90  100 1   
   101   90  101 1   
   102  102  103 1   
   103  102  110 1   
   104  103  104 1   
   105  103  106 1   
   106  103  111 1   
   107  104  105 2   
   108  104  114 1   
   109  106  107 1   
   110  106  112 1   
   111  106  113 1   
   112  107  108 1   
   113  107  109 1   
   114  114  115 1   
   115  114  125 1   
   116  115  116 1   
   117  115  118 1   
   118  115  126 1   
   119  116  117 2   
   120  116  134 1   
   121  118  119 1   
   122  118  127 1   
   123  118  128 1   
   124  119  120 ar  
   125  119  121 ar  
   126  120  122 ar  
   127  120  129 1   
   128  121  123 ar  
   129  121  130 1   
   130  122  124 ar  
   131  122  131 1   
   132  123  124 ar  
   133  123  132 1   
   134  124  133 1   
   135  134  135 1   
   136  134  140 1   
   137  135  136 1   
   138  135  138 1   
   139  135  141 1   
   140  136  137 2   
   141  136  148 1   
   142  138  139 1   
   143  138  142 1   
   144  138  143 1   
   145  139  140 1   
   146  139  144 1   
   147  139  145 1   
   148  140  146 1   
   149  140  147 1   
   150  148  149 1   
   151  148  157 1   
   152  149  150 1   
   153  149  152 1   
   154  149  158 1   
   155  150  151 2   
   156  150  163 1   
   157  152  153 1   
   158  152  159 1   
   159  152  160 1   
   160  153  154 1   
   161  153  161 1   
   162  153  162 1   
   163  154  155 1   
   164  154  156 1   
   165  163  164 1   
   166  163  168 1   
   167  164  165 1   
   168  164  166 1   
   169  164  167 1   
   170  170  171 1   
   171  170  172 1   
@<TRIPOS>SUBSTRUCTURE
     1 MOL         1 TEMP              0 ****  ****    0 ROOT
