@<TRIPOS>MOLECULE
MOL
  189   185     1     0     0
SMALL
resp


@<TRIPOS>ATOM
      1 C1         -0.4700    0.9170    6.5950 c3        1 MOL     -0.255361
      2 C2         -0.6100    0.9090    5.0700 c         1 MOL      0.727337
      3 O1          0.2730    1.4430    4.4390 o         1 MOL     -0.598442
      4 H1          0.4480    1.4370    6.8720 hc        1 MOL      0.062167
      5 H2         -1.3240    1.4290    7.0370 hc        1 MOL      0.062167
      6 H3         -0.4310   -0.1090    6.9620 hc        1 MOL      0.062167
      7 N1         -1.7430    0.3770    4.5240 n         1 MOL     -0.560965
      8 C3         -2.1720    0.6410    3.1580 c3        1 MOL      0.003390
      9 C4         -2.4670    2.1040    2.9300 c         1 MOL      0.617417
     10 O2         -3.3810    2.5490    3.6240 o         1 MOL     -0.589581
     11 C5         -3.3900   -0.2490    2.8300 c3        1 MOL     -0.028978
     12 C6         -4.2250    0.1370    1.6430 c         1 MOL      0.573250
     13 O3         -5.4780    0.2800    1.7830 o         1 MOL     -0.596440
     14 O4         -3.5830    0.3790    0.5910 o         1 MOL     -0.596440
     15 H4         -2.4060   -0.1290    5.0820 hn        1 MOL      0.318375
     16 H5         -1.3420    0.3650    2.5030 h1        1 MOL      0.015551
     17 H6         -4.0410   -0.4170    3.6840 hc        1 MOL     -0.004934
     18 H7         -3.0230   -1.2120    2.4810 hc        1 MOL     -0.004934
     19 N2         -1.7490    2.8810    2.1700 n         1 MOL     -0.119149
     20 C7         -1.8000    4.3410    2.0770 c3        1 MOL     -0.242782
     21 C8         -2.9430    4.9570    1.2340 c         1 MOL      0.651670
     22 O5         -3.2030    6.1440    1.2710 o         1 MOL     -0.560939
     23 C9         -0.4260    4.8740    1.6330 c3        1 MOL     -0.012697
     24 C10        -0.1430    4.6300    0.0740 c3        1 MOL      0.084854
     25 C11         1.2550    4.8260   -0.3530 c3        1 MOL     -0.081025
     26 C12         1.3810    4.8300   -1.9090 c3        1 MOL      0.049489
     27 N3          2.8140    4.7160   -2.2380 n4        1 MOL     -0.382625
     28 H8         -1.0060    2.4600    1.6210 hn        1 MOL      0.112255
     29 H9         -2.0410    4.6540    3.0920 h1        1 MOL      0.120657
     30 H10         0.4220    4.4690    2.1900 hc        1 MOL      0.050028
     31 H11        -0.4230    5.9470    1.8200 hc        1 MOL      0.050028
     32 H12        -0.8010    5.2900   -0.5120 hc        1 MOL      0.013874
     33 H13        -0.4280    3.6450   -0.2890 hc        1 MOL      0.013874
     34 H14         1.9600    4.1210    0.0850 hc        1 MOL      0.003926
     35 H15         1.5780    5.7890    0.0260 hc        1 MOL      0.003926
     36 H16         0.8710    5.6430   -2.4410 hx        1 MOL      0.097982
     37 H17         0.9920    3.8910   -2.2940 hx        1 MOL      0.097982
     38 H18         3.0080    4.9520   -3.1960 hn        1 MOL      0.321508
     39 H19         3.3510    5.2690   -1.5800 hn        1 MOL      0.321508
     40 H20         3.0590    3.7430   -2.0910 hn        1 MOL      0.321508
     41 N4         -3.6940    4.1580    0.4390 n         1 MOL     -0.577922
     42 C13        -4.5440    4.6440   -0.6650 c3        1 MOL      0.217270
     43 C14        -5.6780    3.6280   -0.9730 c         1 MOL      0.431292
     44 O6         -6.0890    3.4520   -2.1360 o         1 MOL     -0.504427
     45 C15        -3.5470    4.7780   -1.7980 c3        1 MOL     -0.408700
     46 C16        -2.7590    3.5800   -2.2200 c         1 MOL      1.039902
     47 O7         -2.9140    2.4790   -1.6640 o         1 MOL     -0.829092
     48 O8         -1.7920    3.7240   -3.0690 o         1 MOL     -0.829092
     49 H21        -3.5430    3.1630    0.4470 hn        1 MOL      0.208265
     50 H22        -5.0590    5.5790   -0.4590 h1        1 MOL      0.080831
     51 H23        -2.8220    5.5380   -1.4990 hc        1 MOL      0.086461
     52 H24        -4.0750    5.0620   -2.7090 hc        1 MOL      0.086461
     53 N5         -6.2150    2.8940    0.0170 n         1 MOL     -0.342297
     54 C17        -7.6410    2.3880    0.0730 c3        1 MOL     -0.436275
     55 C18        -7.9140    1.1850   -0.8470 c         1 MOL      0.633466
     56 O9         -9.0550    0.8110   -1.0300 o         1 MOL     -0.578771
     57 H25        -5.8280    2.9660    0.9590 hn        1 MOL      0.312268
     58 H26        -8.1900    3.2420   -0.3270 h1        1 MOL      0.191198
     59 H27        -7.8780    2.1620    1.1110 h1        1 MOL      0.191198
     60 N6         -6.8830    0.5830   -1.4140 n         1 MOL     -0.297087
     61 C19        -7.1190   -0.6770   -2.1490 c3        1 MOL     -0.053135
     62 C20        -7.0410   -1.9300   -1.1930 c         1 MOL      0.457480
     63 O10        -7.4370   -3.0190   -1.6620 o         1 MOL     -0.525655
     64 C21        -5.9810   -0.9980   -3.2430 c3        1 MOL     -0.237900
     65 C22        -4.5460   -0.7940   -2.7740 c         1 MOL      0.756675
     66 O11        -4.1020   -1.4320   -1.7730 o         1 MOL     -0.714671
     67 O12        -3.8090    0.0570   -3.3210 o         1 MOL     -0.714671
     68 H28        -5.9590    0.8610   -1.1400 hn        1 MOL      0.332716
     69 H29        -8.1400   -0.6320   -2.5340 h1        1 MOL      0.141936
     70 H30        -6.1860   -0.3980   -4.1370 hc        1 MOL      0.080460
     71 H31        -5.9960   -2.0410   -3.5360 hc        1 MOL      0.080460
     72 N7         -6.6950   -1.8160    0.1360 n         1 MOL     -0.294646
     73 C23        -6.6640   -2.9940    0.9420 c3        1 MOL      0.030454
     74 C24        -5.5750   -4.0310    0.6690 c         1 MOL      0.331097
     75 O13        -5.7820   -5.2260    0.9500 o         1 MOL     -0.534863
     76 H32        -6.3370   -0.9410    0.4980 hn        1 MOL      0.201106
     77 H33        -7.6400   -3.4740    1.0060 h1        1 MOL      0.063206
     78 H34        -6.5950   -2.7090    1.9950 h1        1 MOL      0.063206
     79 N8         -4.5220   -3.6190   -0.0370 n         1 MOL      0.041770
     80 C25        -3.2820   -4.3580   -0.2910 c3        1 MOL     -0.323477
     81 C26        -2.0530   -3.5250   -0.0840 c         1 MOL      0.628029
     82 O14        -2.0320   -2.3060   -0.2750 o         1 MOL     -0.644021
     83 C27        -3.2150   -4.8900   -1.7910 c3        1 MOL      0.520713
     84 C28        -4.3940   -5.8320   -2.0610 c3        1 MOL     -0.481297
     85 O15        -3.2430   -3.8560   -2.6990 oh        1 MOL     -0.621738
     86 H35        -4.6620   -2.7400   -0.5000 hn        1 MOL      0.139786
     87 H36        -3.1860   -5.2500    0.3380 h1        1 MOL      0.112293
     88 H37        -2.3120   -5.4420   -2.0200 h1        1 MOL     -0.031836
     89 H38        -3.4020   -3.0370   -2.2210 ho        1 MOL      0.375362
     90 H39        -4.3280   -6.6120   -1.3010 hc        1 MOL      0.121241
     91 H40        -5.4020   -5.4600   -1.9020 hc        1 MOL      0.121241
     92 H41        -4.1670   -6.3060   -3.0200 hc        1 MOL      0.121241
     93 N9         -0.9440   -4.1850    0.2370 n         1 MOL     -0.587800
     94 C29         0.3400   -3.5090    0.6430 c3        1 MOL      0.252488
     95 C30         1.5060   -3.8310   -0.2940 c         1 MOL      0.323543
     96 O16         1.8840   -5.0280   -0.4850 o         1 MOL     -0.521074
     97 C31         0.6480   -3.7170    2.1860 c3        1 MOL      0.028538
     98 C32        -0.1880   -2.8380    3.1760 c3        1 MOL     -0.042030
     99 C33         2.1110   -3.7230    2.4890 c3        1 MOL     -0.100482
    100 C34         0.1300   -3.2840    4.6080 c3        1 MOL     -0.007244
    101 H42        -0.9920   -5.1900    0.3600 hn        1 MOL      0.306203
    102 H43         0.2660   -2.4260    0.5510 h1        1 MOL      0.040085
    103 H44         0.3670   -4.7530    2.3630 hc        1 MOL      0.006840
    104 H45        -1.2320   -3.0930    3.0170 hc        1 MOL      0.041492
    105 H46         0.0350   -1.7820    3.0200 hc        1 MOL      0.041492
    106 H47         2.7140   -4.4180    1.8970 hc        1 MOL      0.028327
    107 H48         2.5200   -2.7130    2.4340 hc        1 MOL      0.028327
    108 H49         2.2590   -4.1900    3.4590 hc        1 MOL      0.028327
    109 H50        -0.1760   -4.3010    4.8720 hc        1 MOL     -0.002722
    110 H51         1.1700   -3.1240    4.9060 hc        1 MOL     -0.002722
    111 H52        -0.4590   -2.6550    5.2830 hc        1 MOL     -0.002722
    112 N10         2.1740   -2.7620   -0.8520 n         1 MOL      0.075810
    113 C35         3.3750   -2.7820   -1.6590 c3        1 MOL     -0.072832
    114 C36         4.6440   -2.5350   -0.8030 c         1 MOL      0.375809
    115 O17         4.5760   -2.4780    0.4320 o         1 MOL     -0.394201
    116 C37         3.2500   -1.7440   -2.8310 c3        1 MOL      0.105353
    117 C38         2.0800   -1.9010   -3.8550 c3        1 MOL     -0.072271
    118 O18         2.9590   -0.4890   -2.2800 oh        1 MOL     -0.584841
    119 H53         1.9010   -1.8630   -0.4810 hn        1 MOL     -0.087629
    120 H54         3.4990   -3.7500   -2.1290 h1        1 MOL      0.083809
    121 H55         4.1820   -1.6830   -3.3990 h1        1 MOL      0.043219
    122 H56         2.0990   -0.6020   -1.8830 ho        1 MOL      0.374462
    123 H57         1.2450   -2.2030   -3.2210 hc        1 MOL      0.032106
    124 H58         1.9890   -0.9930   -4.4510 hc        1 MOL      0.032106
    125 H59         2.2660   -2.6850   -4.5950 hc        1 MOL      0.032106
    126 N11         5.9070   -2.3300   -1.3400 n         1 MOL     -0.272339
    127 C39         7.1640   -2.2260   -0.5360 c3        1 MOL     -0.081455
    128 C40         7.3370   -0.9020    0.1830 c         1 MOL      0.194914
    129 O19         7.5590   -0.8300    1.4090 o         1 MOL     -0.432356
    130 C41         8.4050   -2.4850   -1.3430 c3        1 MOL      0.203214
    131 C42         8.3550   -3.9250   -1.8830 c3        1 MOL     -0.491734
    132 O20         8.3430   -1.6360   -2.4090 oh        1 MOL     -0.618677
    133 H60         5.9330   -2.3370   -2.3530 hn        1 MOL      0.237427
    134 H61         7.1730   -2.9720    0.2650 h1        1 MOL      0.167978
    135 H62         9.3840   -2.2820   -0.9140 h1        1 MOL      0.080509
    136 H63         9.1220   -1.8030   -2.9560 ho        1 MOL      0.413093
    137 H64         7.5710   -3.9250   -2.6410 hc        1 MOL      0.146348
    138 H65         9.3170   -4.1720   -2.3440 hc        1 MOL      0.146348
    139 H66         8.0440   -4.6580   -1.1440 hc        1 MOL      0.146348
    140 N12         7.0460    0.2500   -0.4550 n         1 MOL      0.041201
    141 C43         7.0130    1.5610    0.2240 c3        1 MOL      0.018023
    142 C44         6.0340    1.6120    1.4620 c         1 MOL      0.287679
    143 O21         6.4280    2.2620    2.4830 o         1 MOL     -0.462020
    144 C45         6.4930    2.6760   -0.6830 c3        1 MOL     -0.155586
    145 C46         7.2300    2.7150   -1.9820 c3        1 MOL      0.087290
    146 C47         8.7730    2.7040   -1.8680 c3        1 MOL      0.158404
    147 C48         9.4060    3.1130   -3.2480 c3        1 MOL     -0.019176
    148 N13        10.8430    2.8490   -3.4080 n4        1 MOL     -0.344312
    149 H67         6.8830    0.1380   -1.4510 hn        1 MOL      0.158257
    150 H68         8.0390    1.8070    0.4800 h1        1 MOL      0.052712
    151 H69         6.4050    3.6330   -0.1540 hc        1 MOL      0.064843
    152 H70         5.4930    2.4300   -1.0290 hc        1 MOL      0.064843
    153 H71         6.9470    3.6060   -2.5380 hc        1 MOL     -0.046838
    154 H72         7.0470    1.8270   -2.5820 hc        1 MOL     -0.046838
    155 H73         9.1610    1.7180   -1.6270 hc        1 MOL     -0.022836
    156 H74         9.1200    3.4560   -1.1650 hc        1 MOL     -0.022836
    157 H75         9.2340    4.1740   -3.3880 hx        1 MOL      0.086973
    158 H76         8.8920    2.5620   -4.0330 hx        1 MOL      0.086973
    159 H77        11.3470    3.4350   -2.7530 hn        1 MOL      0.298709
    160 H78        10.9960    1.8580   -3.2370 hn        1 MOL      0.298709
    161 H79        11.1380    3.0060   -4.3610 hn        1 MOL      0.298709
    162 N14         4.9540    0.8240    1.3360 n         1 MOL     -0.071566
    163 C49         3.9420    0.6860    2.3920 c3        1 MOL     -0.275279
    164 C50         4.3890   -0.3420    3.4940 c         1 MOL      0.585229
    165 O22         4.2680   -0.0630    4.6890 o         1 MOL     -0.539437
    166 C51         2.6850    0.1710    1.6330 c3        1 MOL      0.308286
    167 C52         1.9250    1.2950    0.8730 c3        1 MOL      0.021251
    168 C53         0.6870    0.7310    0.2300 c         1 MOL      0.609526
    169 O23         0.7230   -0.2250   -0.5610 o         1 MOL     -0.629156
    170 O24        -0.3630    1.2760    0.4150 o         1 MOL     -0.629156
    171 H80         4.8100    0.4020    0.4280 hn        1 MOL      0.079507
    172 H81         3.7880    1.5740    3.0060 h1        1 MOL      0.142657
    173 H82         1.9990   -0.1540    2.4130 hc        1 MOL     -0.042776
    174 H83         2.9050   -0.6630    0.9590 hc        1 MOL     -0.042776
    175 H84         2.6120    1.7090    0.1290 hc        1 MOL     -0.034492
    176 H85         1.6500    2.0290    1.6350 hc        1 MOL     -0.034492
    177 N15         5.0860   -1.4310    3.0650 n         1 MOL     -0.037832
    178 C54         5.6300   -2.3360    4.0020 c3        1 MOL     -0.505413
    179 H86         6.3590   -1.8190    4.6260 h1        1 MOL      0.155807
    180 H87         4.8320   -2.7340    4.6290 h1        1 MOL      0.155807
    181 H88         6.1200   -3.1550    3.4750 h1        1 MOL      0.155807
    182 H89         5.4760   -1.4400    2.1360 hn        1 MOL      0.130263
    183 Ca1        -1.9480    0.1140   -1.3190 Ca        1 MOL      1.714189
    184 O25        -0.2170    1.5980   -2.8120 oh        1 MOL     -0.817715
    185 H90        -0.7790    2.3650   -2.8460 ho        1 MOL      0.388999
    186 H91         0.2640    1.6130   -3.6380 ho        1 MOL      0.388999
    187 O26        -1.1680   -1.7280   -3.3700 oh        1 MOL     -0.817715
    188 H92        -0.9460   -1.8160   -4.3010 ho        1 MOL      0.388999
    189 H93        -1.7040   -2.4950   -3.1790 ho        1 MOL      0.388999
@<TRIPOS>BOND
     1    1    2 1   
     2    1    4 1   
     3    1    5 1   
     4    1    6 1   
     5    2    3 2   
     6    2    7 1   
     7    7    8 1   
     8    7   15 1   
     9    8    9 1   
    10    8   11 1   
    11    8   16 1   
    12    9   10 2   
    13    9   19 1   
    14   11   12 1   
    15   11   17 1   
    16   11   18 1   
    17   12   13 1   
    18   12   14 1   
    19   19   20 1   
    20   19   28 1   
    21   20   21 1   
    22   20   23 1   
    23   20   29 1   
    24   21   22 2   
    25   21   41 1   
    26   23   24 1   
    27   23   30 1   
    28   23   31 1   
    29   24   25 1   
    30   24   32 1   
    31   24   33 1   
    32   25   26 1   
    33   25   34 1   
    34   25   35 1   
    35   26   27 1   
    36   26   36 1   
    37   26   37 1   
    38   27   38 1   
    39   27   39 1   
    40   27   40 1   
    41   41   42 1   
    42   41   49 1   
    43   42   43 1   
    44   42   45 1   
    45   42   50 1   
    46   43   44 2   
    47   43   53 1   
    48   45   46 1   
    49   45   51 1   
    50   45   52 1   
    51   46   47 1   
    52   46   48 1   
    53   53   54 1   
    54   53   57 1   
    55   54   55 1   
    56   54   58 1   
    57   54   59 1   
    58   55   56 2   
    59   55   60 1   
    60   60   61 1   
    61   60   68 1   
    62   61   62 1   
    63   61   64 1   
    64   61   69 1   
    65   62   63 2   
    66   62   72 1   
    67   64   65 1   
    68   64   70 1   
    69   64   71 1   
    70   65   66 1   
    71   65   67 1   
    72   72   73 1   
    73   72   76 1   
    74   73   74 1   
    75   73   77 1   
    76   73   78 1   
    77   74   75 2   
    78   74   79 1   
    79   79   80 1   
    80   79   86 1   
    81   80   81 1   
    82   80   83 1   
    83   80   87 1   
    84   81   82 2   
    85   81   93 1   
    86   83   84 1   
    87   83   85 1   
    88   83   88 1   
    89   84   90 1   
    90   84   91 1   
    91   84   92 1   
    92   85   89 1   
    93   93   94 1   
    94   93  101 1   
    95   94   95 1   
    96   94   97 1   
    97   94  102 1   
    98   95   96 2   
    99   95  112 1   
   100   97   98 1   
   101   97   99 1   
   102   97  103 1   
   103   98  100 1   
   104   98  104 1   
   105   98  105 1   
   106   99  106 1   
   107   99  107 1   
   108   99  108 1   
   109  100  109 1   
   110  100  110 1   
   111  100  111 1   
   112  112  113 1   
   113  112  119 1   
   114  113  114 1   
   115  113  116 1   
   116  113  120 1   
   117  114  115 2   
   118  114  126 1   
   119  116  117 1   
   120  116  118 1   
   121  116  121 1   
   122  117  123 1   
   123  117  124 1   
   124  117  125 1   
   125  118  122 1   
   126  126  127 1   
   127  126  133 1   
   128  127  128 1   
   129  127  130 1   
   130  127  134 1   
   131  128  129 2   
   132  128  140 1   
   133  130  131 1   
   134  130  132 1   
   135  130  135 1   
   136  131  137 1   
   137  131  138 1   
   138  131  139 1   
   139  132  136 1   
   140  140  141 1   
   141  140  149 1   
   142  141  142 1   
   143  141  144 1   
   144  141  150 1   
   145  142  143 2   
   146  142  162 1   
   147  144  145 1   
   148  144  151 1   
   149  144  152 1   
   150  145  146 1   
   151  145  153 1   
   152  145  154 1   
   153  146  147 1   
   154  146  155 1   
   155  146  156 1   
   156  147  148 1   
   157  147  157 1   
   158  147  158 1   
   159  148  159 1   
   160  148  160 1   
   161  148  161 1   
   162  162  163 1   
   163  162  171 1   
   164  163  164 1   
   165  163  166 1   
   166  163  172 1   
   167  164  165 2   
   168  164  177 1   
   169  166  167 1   
   170  166  173 1   
   171  166  174 1   
   172  167  168 1   
   173  167  175 1   
   174  167  176 1   
   175  168  169 1   
   176  168  170 1   
   177  177  178 1   
   178  177  182 1   
   179  178  179 1   
   180  178  180 1   
   181  178  181 1   
   182  184  185 1   
   183  184  186 1   
   184  187  188 1   
   185  187  189 1   
@<TRIPOS>SUBSTRUCTURE
     1 MOL         1 TEMP              0 ****  ****    0 ROOT
