@<TRIPOS>MOLECULE
MOL
  189   185     1     0     0
SMALL
resp


@<TRIPOS>ATOM
      1 C1          0.1350    3.5330   -4.6680 c3        1 MOL     -0.328754
      2 C2          0.7070    2.9640   -3.3780 c         1 MOL      0.564436
      3 O1          0.2320    3.3240   -2.3070 o         1 MOL     -0.561719
      4 H1          0.8560    3.4000   -5.4740 hc        1 MOL      0.091879
      5 H2         -0.7900    3.0120   -4.9170 hc        1 MOL      0.091879
      6 H3         -0.0720    4.5950   -4.5370 hc        1 MOL      0.091879
      7 N1          1.7070    2.1380   -3.3860 n         1 MOL     -0.416371
      8 C3          2.3260    1.4800   -2.2640 c3        1 MOL      0.017255
      9 C4          3.2700    2.4820   -1.5500 c         1 MOL      0.442809
     10 O2          4.4110    2.6040   -1.9670 o         1 MOL     -0.523385
     11 C5          3.0940    0.2770   -2.6970 c3        1 MOL     -0.041493
     12 C6          3.7280   -0.5430   -1.5750 c         1 MOL      0.524382
     13 O3          3.3060   -0.5180   -0.4120 o         1 MOL     -0.617972
     14 O4          4.6560   -1.3170   -1.8940 o         1 MOL     -0.617972
     15 H4          2.0910    1.9130   -4.2970 hn        1 MOL      0.291678
     16 H5          1.6010    1.1360   -1.5310 h1        1 MOL      0.052285
     17 H6          3.8640    0.5210   -3.4380 hc        1 MOL      0.020736
     18 H7          2.4060   -0.2830   -3.3370 hc        1 MOL      0.020736
     19 N2          2.6430    3.2670   -0.6880 n         1 MOL     -0.231104
     20 C7          3.2080    4.5660   -0.2170 c3        1 MOL      0.044926
     21 C8          4.0440    4.4950    1.0600 c         1 MOL      0.577106
     22 O5          4.7590    5.4110    1.3680 o         1 MOL     -0.581112
     23 C9          2.1420    5.6400   -0.0790 c3        1 MOL     -0.322701
     24 C10         2.6630    6.9790   -0.6530 c3        1 MOL      0.143645
     25 C11         2.5380    6.8130   -2.1870 c3        1 MOL      0.150880
     26 C12         3.3210    7.9160   -2.8670 c3        1 MOL     -0.128802
     27 N3          4.7680    7.6610   -3.0770 n4        1 MOL     -0.273499
     28 H8          1.6470    3.1620   -0.7950 hn        1 MOL      0.275998
     29 H9          3.8940    4.9390   -0.9760 h1        1 MOL     -0.018998
     30 H10         1.9440    5.6820    0.9960 hc        1 MOL      0.101781
     31 H11         1.2490    5.3800   -0.6530 hc        1 MOL      0.101781
     32 H12         3.6450    7.1590   -0.2230 hc        1 MOL     -0.013360
     33 H13         2.0160    7.8300   -0.4460 hc        1 MOL     -0.013360
     34 H14         1.4820    6.8360   -2.4630 hc        1 MOL      0.022857
     35 H15         2.9090    5.8580   -2.5690 hc        1 MOL      0.022857
     36 H16         3.1550    8.8250   -2.2840 hx        1 MOL      0.087517
     37 H17         2.8300    7.8690   -3.8350 hx        1 MOL      0.087517
     38 H18         4.8470    6.8900   -3.7100 hn        1 MOL      0.316752
     39 H19         5.2400    8.4740   -3.4700 hn        1 MOL      0.316752
     40 H20         5.2460    7.3690   -2.2370 hn        1 MOL      0.316752
     41 N4          4.0480    3.3090    1.6130 n         1 MOL     -0.275269
     42 C13         5.0320    2.8520    2.6060 c3        1 MOL      0.089888
     43 C14         6.1140    1.8910    2.0590 c         1 MOL      0.324288
     44 O6          7.2010    1.6380    2.5670 o         1 MOL     -0.525679
     45 C15         4.3360    2.3120    3.8640 c3        1 MOL     -0.299297
     46 C16         3.3460    1.1710    3.5950 c         1 MOL      0.810895
     47 O7          3.2290    0.6510    2.4400 o         1 MOL     -0.723425
     48 O8          2.5770    0.8420    4.5770 o         1 MOL     -0.723425
     49 H21         3.3840    2.6360    1.2340 hn        1 MOL      0.122546
     50 H22         5.5810    3.7640    2.8630 h1        1 MOL      0.070792
     51 H23         3.8640    3.1140    4.4310 hc        1 MOL      0.082998
     52 H24         5.0870    1.9260    4.5440 hc        1 MOL      0.082998
     53 N5          5.7680    1.3310    0.9440 n         1 MOL      0.112124
     54 C17         6.6390    0.5200    0.0400 c3        1 MOL     -0.223921
     55 C18         6.9980   -0.9250    0.4510 c         1 MOL      0.540292
     56 O9          8.1870   -1.2820    0.4400 o         1 MOL     -0.577296
     57 H25         4.9420    1.7230    0.5360 hn        1 MOL     -0.043424
     58 H26         7.5500    1.1160   -0.0550 h1        1 MOL      0.105442
     59 H27         6.0920    0.4090   -0.8890 h1        1 MOL      0.105442
     60 N6          6.0110   -1.6120    1.0000 n         1 MOL     -0.154424
     61 C19         6.1200   -2.9350    1.5780 c3        1 MOL     -0.000186
     62 C20         6.0550   -4.0860    0.5670 c         1 MOL      0.348174
     63 O10         6.3020   -5.2350    0.9640 o         1 MOL     -0.530448
     64 C21         5.1210   -3.1340    2.7220 c3        1 MOL     -0.287172
     65 C22         3.6610   -2.7840    2.4300 c         1 MOL      0.802443
     66 O11         2.9310   -2.2570    3.3080 o         1 MOL     -0.736182
     67 O12         3.1030   -3.0760    1.3110 o         1 MOL     -0.736182
     68 H28         5.1110   -1.1930    0.8220 hn        1 MOL      0.081898
     69 H29         7.1220   -3.0440    1.9890 h1        1 MOL      0.118612
     70 H30         5.3910   -2.4960    3.5640 hc        1 MOL      0.090114
     71 H31         5.0750   -4.1900    3.0030 hc        1 MOL      0.090114
     72 N7          5.6420   -3.8540   -0.6930 n         1 MOL     -0.133978
     73 C23         5.3210   -4.7980   -1.8010 c3        1 MOL     -0.172605
     74 C24         3.8580   -5.1650   -1.9630 c         1 MOL      0.548686
     75 O13         3.5890   -6.1930   -2.6290 o         1 MOL     -0.563124
     76 H32         5.5020   -2.8720   -0.8370 hn        1 MOL      0.157312
     77 H33         5.8540   -5.7370   -1.6160 h1        1 MOL      0.100300
     78 H34         5.7000   -4.3450   -2.7130 h1        1 MOL      0.100300
     79 N8          2.9430   -4.4300   -1.3070 n         1 MOL     -0.240056
     80 C25         1.5300   -4.6300   -1.4000 c3        1 MOL     -0.358317
     81 C26         0.6790   -3.3680   -1.3060 c         1 MOL      0.830031
     82 O14         0.8890   -2.4200   -0.5750 o         1 MOL     -0.631538
     83 C27         0.9280   -5.5830   -0.3880 c3        1 MOL      0.397696
     84 C28         1.6330   -6.9880   -0.3330 c3        1 MOL     -0.477904
     85 O15         1.0330   -5.0840    0.9130 oh        1 MOL     -0.607986
     86 H35         3.3090   -3.8160   -0.5990 hn        1 MOL      0.301344
     87 H36         1.3260   -5.0790   -2.3780 h1        1 MOL      0.117643
     88 H37        -0.1440   -5.7180   -0.5520 h1        1 MOL      0.039768
     89 H38         1.9650   -4.8660    1.0560 ho        1 MOL      0.381888
     90 H39         1.4520   -7.4780   -1.2940 hc        1 MOL      0.128591
     91 H40         2.7120   -6.9240   -0.2320 hc        1 MOL      0.128591
     92 H41         1.2340   -7.6080    0.4660 hc        1 MOL      0.128591
     93 N9         -0.3360   -3.4190   -2.1550 n         1 MOL     -0.628909
     94 C29        -1.3510   -2.3780   -2.3790 c3        1 MOL     -0.067783
     95 C30        -2.6110   -2.9630   -1.7990 c         1 MOL      0.442015
     96 O16        -3.1710   -3.9590   -2.2490 o         1 MOL     -0.560199
     97 C31        -1.5980   -1.9730   -3.8350 c3        1 MOL      0.210235
     98 C32        -0.3220   -1.2270   -4.3080 c3        1 MOL      0.110065
     99 C33        -2.7850   -0.9790   -3.9640 c3        1 MOL     -0.372197
    100 C34        -0.2550   -1.2710   -5.8380 c3        1 MOL     -0.262334
    101 H42        -0.3890   -4.2640   -2.6980 hn        1 MOL      0.321976
    102 H43        -1.0310   -1.5520   -1.7450 h1        1 MOL      0.088439
    103 H44        -1.6870   -2.8510   -4.4700 hc        1 MOL      0.024107
    104 H45         0.5770   -1.6410   -3.8460 hc        1 MOL      0.004169
    105 H46        -0.4030   -0.1760   -4.0040 hc        1 MOL      0.004169
    106 H47        -3.6760   -1.4910   -3.6000 hc        1 MOL      0.078210
    107 H48        -2.5890   -0.0930   -3.3710 hc        1 MOL      0.078210
    108 H49        -2.8990   -0.7940   -5.0350 hc        1 MOL      0.078210
    109 H50         0.7000   -0.8600   -6.1520 hc        1 MOL      0.053201
    110 H51        -0.4920   -2.2440   -6.2620 hc        1 MOL      0.053201
    111 H52        -1.0140   -0.5850   -6.2130 hc        1 MOL      0.053201
    112 N10        -3.0510   -2.3090   -0.7720 n         1 MOL     -0.024282
    113 C35        -4.3280   -2.5580   -0.0870 c3        1 MOL     -0.170861
    114 C36        -5.4830   -1.8300   -0.8620 c         1 MOL      0.480070
    115 O17        -5.2590   -0.8040   -1.5560 o         1 MOL     -0.440804
    116 C37        -4.2810   -1.9940    1.3930 c3        1 MOL      0.285552
    117 C38        -3.3820   -2.9070    2.2770 c3        1 MOL     -0.395375
    118 O18        -3.9320   -0.6530    1.3980 oh        1 MOL     -0.419257
    119 H53        -2.5240   -1.5540   -0.3590 hn        1 MOL      0.197643
    120 H54        -4.6060   -3.6080   -0.0720 h1        1 MOL      0.073188
    121 H55        -5.3090   -2.0610    1.7580 h1        1 MOL      0.022722
    122 H56        -2.9750   -0.6450    1.2550 ho        1 MOL      0.291583
    123 H57        -3.9980   -3.7800    2.5120 hc        1 MOL      0.103957
    124 H58        -2.4800   -3.1160    1.7080 hc        1 MOL      0.103957
    125 H59        -3.2890   -2.3770    3.2200 hc        1 MOL      0.103957
    126 N11        -6.7120   -2.1590   -0.4760 n         1 MOL     -0.344992
    127 C39        -7.9100   -1.3610   -0.7160 c3        1 MOL     -0.211997
    128 C40        -7.8630    0.1170   -0.2230 c         1 MOL      0.397999
    129 O19        -8.0600    0.9960   -1.0270 o         1 MOL     -0.465991
    130 C41        -9.2090   -1.9040   -0.0060 c3        1 MOL      0.214636
    131 C42        -9.6380   -3.2480   -0.5660 c3        1 MOL     -0.332692
    132 O20        -8.9470   -2.1750    1.3970 oh        1 MOL     -0.653569
    133 H60        -6.8270   -2.8990    0.2030 hn        1 MOL      0.280628
    134 H61        -7.9600   -1.4270   -1.8040 h1        1 MOL      0.185071
    135 H62       -10.0290   -1.2110   -0.1580 h1        1 MOL      0.099944
    136 H63        -9.6420   -2.6680    1.8380 ho        1 MOL      0.440149
    137 H64        -9.0660   -4.1050   -0.2040 hc        1 MOL      0.097396
    138 H65       -10.6170   -3.4110   -0.1180 hc        1 MOL      0.097396
    139 H66        -9.7230   -3.2720   -1.6520 hc        1 MOL      0.097396
    140 N12        -7.4330    0.2760    0.9870 n         1 MOL     -0.204381
    141 C43        -7.0230    1.5580    1.6020 c3        1 MOL      0.002567
    142 C44        -6.0890    2.3340    0.7450 c         1 MOL      0.210375
    143 O21        -6.3760    3.4870    0.3830 o         1 MOL     -0.515462
    144 C45        -6.4760    1.1950    3.0440 c3        1 MOL     -0.066306
    145 C46        -5.8670    2.4160    3.8630 c3        1 MOL      0.071819
    146 C47        -5.1930    1.8430    5.1500 c3        1 MOL      0.020311
    147 C48        -4.2200    2.8360    5.7990 c3        1 MOL     -0.053023
    148 N13        -3.5280    2.2550    7.0410 n4        1 MOL     -0.223262
    149 H67        -7.4080   -0.6050    1.4820 hn        1 MOL      0.206749
    150 H68        -7.9370    2.0840    1.8900 h1        1 MOL      0.097769
    151 H69        -5.6970    0.4380    3.0050 hc        1 MOL      0.022815
    152 H70        -7.2870    0.7940    3.6640 hc        1 MOL      0.022815
    153 H71        -6.6050    3.1760    4.1220 hc        1 MOL      0.010236
    154 H72        -5.0950    2.8460    3.2170 hc        1 MOL      0.010236
    155 H73        -4.6580    0.9410    4.8810 hc        1 MOL      0.012076
    156 H74        -5.9990    1.6240    5.8530 hc        1 MOL      0.012076
    157 H75        -4.8270    3.6830    6.1240 hx        1 MOL      0.098439
    158 H76        -3.5300    3.0320    4.9890 hx        1 MOL      0.098439
    159 H77        -2.7680    1.6520    6.7770 hn        1 MOL      0.296905
    160 H78        -3.1500    2.9610    7.6600 hn        1 MOL      0.296905
    161 H79        -4.1520    1.7410    7.6340 hn        1 MOL      0.296905
    162 N14        -5.0080    1.7970    0.2850 n         1 MOL      0.353333
    163 C49        -3.9510    2.5120   -0.5320 c3        1 MOL     -0.364600
    164 C50        -4.4070    2.8860   -1.9520 c         1 MOL      0.460521
    165 O22        -4.0310    3.9810   -2.3590 o         1 MOL     -0.534320
    166 C51        -2.6980    1.6380   -0.5290 c3        1 MOL      0.079542
    167 C52        -1.8840    1.8910    0.7420 c3        1 MOL     -0.301842
    168 C53        -0.8180    0.8760    0.8080 c         1 MOL      0.696445
    169 O23         0.3160    1.2520    0.7300 o         1 MOL     -0.684665
    170 O24        -1.0970   -0.3470    0.8810 o         1 MOL     -0.684665
    171 H80        -4.8670    0.8510    0.6090 hn        1 MOL     -0.131121
    172 H81        -3.7010    3.4740   -0.0940 h1        1 MOL      0.149081
    173 H82        -2.1710    1.8770   -1.4530 hc        1 MOL      0.065729
    174 H83        -2.9270    0.5670   -0.5410 hc        1 MOL      0.065729
    175 H84        -2.4900    1.9510    1.6450 hc        1 MOL      0.079333
    176 H85        -1.3910    2.8550    0.6930 hc        1 MOL      0.079333
    177 N15        -5.3650    2.1540   -2.5810 n         1 MOL     -0.042274
    178 C54        -5.8830    2.4960   -3.8740 c3        1 MOL     -0.298660
    179 H86        -5.1200    2.3110   -4.6300 h1        1 MOL      0.108977
    180 H87        -6.7610    1.8870   -4.0870 h1        1 MOL      0.108977
    181 H88        -6.1590    3.5510   -3.8880 h1        1 MOL      0.108977
    182 H89        -5.6940    1.3780   -2.0240 hn        1 MOL      0.135543
    183 Ca1         1.5300   -0.9430    1.4650 Ca        1 MOL      1.710152
    184 O25         0.0590   -2.9770    2.3670 oh        1 MOL     -0.818633
    185 H90         0.1510   -3.2770    3.2740 ho        1 MOL      0.381724
    186 H91         0.3020   -3.7360    1.8350 ho        1 MOL      0.381724
    187 O26         0.2780   -0.1920    3.7760 oh        1 MOL     -0.818633
    188 H92         1.0520    0.1310    4.2510 ho        1 MOL      0.381724
    189 H93        -0.2250   -0.6710    4.4370 ho        1 MOL      0.381724
@<TRIPOS>BOND
     1    1    2 1   
     2    1    4 1   
     3    1    5 1   
     4    1    6 1   
     5    2    3 2   
     6    2    7 1   
     7    7    8 1   
     8    7   15 1   
     9    8    9 1   
    10    8   11 1   
    11    8   16 1   
    12    9   10 2   
    13    9   19 1   
    14   11   12 1   
    15   11   17 1   
    16   11   18 1   
    17   12   13 1   
    18   12   14 1   
    19   19   20 1   
    20   19   28 1   
    21   20   21 1   
    22   20   23 1   
    23   20   29 1   
    24   21   22 2   
    25   21   41 1   
    26   23   24 1   
    27   23   30 1   
    28   23   31 1   
    29   24   25 1   
    30   24   32 1   
    31   24   33 1   
    32   25   26 1   
    33   25   34 1   
    34   25   35 1   
    35   26   27 1   
    36   26   36 1   
    37   26   37 1   
    38   27   38 1   
    39   27   39 1   
    40   27   40 1   
    41   41   42 1   
    42   41   49 1   
    43   42   43 1   
    44   42   45 1   
    45   42   50 1   
    46   43   44 2   
    47   43   53 1   
    48   45   46 1   
    49   45   51 1   
    50   45   52 1   
    51   46   47 1   
    52   46   48 1   
    53   53   54 1   
    54   53   57 1   
    55   54   55 1   
    56   54   58 1   
    57   54   59 1   
    58   55   56 2   
    59   55   60 1   
    60   60   61 1   
    61   60   68 1   
    62   61   62 1   
    63   61   64 1   
    64   61   69 1   
    65   62   63 2   
    66   62   72 1   
    67   64   65 1   
    68   64   70 1   
    69   64   71 1   
    70   65   66 1   
    71   65   67 1   
    72   72   73 1   
    73   72   76 1   
    74   73   74 1   
    75   73   77 1   
    76   73   78 1   
    77   74   75 2   
    78   74   79 1   
    79   79   80 1   
    80   79   86 1   
    81   80   81 1   
    82   80   83 1   
    83   80   87 1   
    84   81   82 2   
    85   81   93 1   
    86   83   84 1   
    87   83   85 1   
    88   83   88 1   
    89   84   90 1   
    90   84   91 1   
    91   84   92 1   
    92   85   89 1   
    93   93   94 1   
    94   93  101 1   
    95   94   95 1   
    96   94   97 1   
    97   94  102 1   
    98   95   96 2   
    99   95  112 1   
   100   97   98 1   
   101   97   99 1   
   102   97  103 1   
   103   98  100 1   
   104   98  104 1   
   105   98  105 1   
   106   99  106 1   
   107   99  107 1   
   108   99  108 1   
   109  100  109 1   
   110  100  110 1   
   111  100  111 1   
   112  112  113 1   
   113  112  119 1   
   114  113  114 1   
   115  113  116 1   
   116  113  120 1   
   117  114  115 2   
   118  114  126 1   
   119  116  117 1   
   120  116  118 1   
   121  116  121 1   
   122  117  123 1   
   123  117  124 1   
   124  117  125 1   
   125  118  122 1   
   126  126  127 1   
   127  126  133 1   
   128  127  128 1   
   129  127  130 1   
   130  127  134 1   
   131  128  129 2   
   132  128  140 1   
   133  130  131 1   
   134  130  132 1   
   135  130  135 1   
   136  131  137 1   
   137  131  138 1   
   138  131  139 1   
   139  132  136 1   
   140  140  141 1   
   141  140  149 1   
   142  141  142 1   
   143  141  144 1   
   144  141  150 1   
   145  142  143 2   
   146  142  162 1   
   147  144  145 1   
   148  144  151 1   
   149  144  152 1   
   150  145  146 1   
   151  145  153 1   
   152  145  154 1   
   153  146  147 1   
   154  146  155 1   
   155  146  156 1   
   156  147  148 1   
   157  147  157 1   
   158  147  158 1   
   159  148  159 1   
   160  148  160 1   
   161  148  161 1   
   162  162  163 1   
   163  162  171 1   
   164  163  164 1   
   165  163  166 1   
   166  163  172 1   
   167  164  165 2   
   168  164  177 1   
   169  166  167 1   
   170  166  173 1   
   171  166  174 1   
   172  167  168 1   
   173  167  175 1   
   174  167  176 1   
   175  168  169 1   
   176  168  170 1   
   177  177  178 1   
   178  177  182 1   
   179  178  179 1   
   180  178  180 1   
   181  178  181 1   
   182  184  185 1   
   183  184  186 1   
   184  187  188 1   
   185  187  189 1   
@<TRIPOS>SUBSTRUCTURE
     1 MOL         1 TEMP              0 ****  ****    0 ROOT
