@<TRIPOS>MOLECULE
MOL
  179   176     1     0     0
SMALL
resp


@<TRIPOS>ATOM
      1 C1          1.1520    5.2640   -4.5940 c3        1 MOL     -0.161090
      2 C2          1.1000    4.3330   -3.4040 c         1 MOL      0.557533
      3 O1          0.1820    4.3850   -2.6100 o         1 MOL     -0.527089
      4 H1          2.0610    5.0720   -5.1640 hc        1 MOL      0.034194
      5 H2          0.2830    5.0920   -5.2300 hc        1 MOL      0.034194
      6 H3          1.1520    6.2980   -4.2490 hc        1 MOL      0.034194
      7 N1          2.0490    3.4640   -3.2620 n         1 MOL     -0.523756
      8 C3          2.3740    2.6700   -2.0240 c3        1 MOL     -0.032153
      9 C4          3.2880    3.5880   -1.1640 c         1 MOL      0.629213
     10 O2          4.4190    3.3940   -0.9000 o         1 MOL     -0.451497
     11 C5          3.0230    1.3180   -2.2360 c3        1 MOL     -0.054784
     12 C6          3.3880    0.4370   -1.0590 c         1 MOL      0.576494
     13 O3          2.7600    0.5340    0.0650 o         1 MOL     -0.693092
     14 O4          4.3510   -0.3770   -1.1300 o         1 MOL     -0.693092
     15 H4          2.6200    3.3210   -4.0830 hn        1 MOL      0.331785
     16 H5          1.5320    2.5260   -1.3580 h1        1 MOL      0.161655
     17 H6          3.9000    1.4680   -2.8660 hc        1 MOL      0.035084
     18 H7          2.3240    0.8580   -2.9350 hc        1 MOL      0.035084
     19 N2          2.6580    4.7240   -0.6490 n         1 MOL     -0.571515
     20 C7          3.3620    5.7690    0.1440 c3        1 MOL     -0.021439
     21 C8          3.8690    5.3430    1.5530 c         1 MOL      0.490976
     22 O5          4.6940    6.0330    2.1770 o         1 MOL     -0.542245
     23 C9          2.6160    7.1270    0.2190 c3        1 MOL     -0.148803
     24 C10         2.1200    7.6920   -1.1690 c3        1 MOL      0.091322
     25 C11         1.6000    9.1010   -0.9610 c3        1 MOL      0.356254
     26 C12         0.9630    9.7610   -2.0970 c3        1 MOL     -0.113006
     27 N3          1.8650   10.0840   -3.1750 n4        1 MOL     -0.351458
     28 H8          1.7000    4.9640   -0.8570 hn        1 MOL      0.329339
     29 H9          4.3230    5.8400   -0.3710 h1        1 MOL      0.100594
     30 H10         3.2780    7.8930    0.6280 hc        1 MOL      0.078219
     31 H11         1.7790    7.0830    0.9170 hc        1 MOL      0.078219
     32 H12         1.2850    7.1060   -1.5600 hc        1 MOL     -0.051560
     33 H13         2.9660    7.8960   -1.8160 hc        1 MOL     -0.051560
     34 H14         2.3830    9.7710   -0.5930 hc        1 MOL     -0.066084
     35 H15         0.8480    9.1320   -0.1730 hc        1 MOL     -0.066084
     36 H16         0.5850   10.7080   -1.7200 hx        1 MOL      0.113687
     37 H17         0.0760    9.2140   -2.3970 hx        1 MOL      0.113687
     38 H18         1.3870   10.3520   -4.0260 hn        1 MOL      0.324384
     39 H19         2.4570   10.8780   -2.9670 hn        1 MOL      0.324384
     40 H20         2.3650    9.2580   -3.4670 hn        1 MOL      0.324384
     41 N4          3.4620    4.1190    1.9360 n         1 MOL     -0.347823
     42 C13         4.0470    3.4620    3.0860 c3        1 MOL      0.116880
     43 C14         5.1360    2.5490    2.6480 c         1 MOL      0.413032
     44 O6          5.9550    2.2350    3.3970 o         1 MOL     -0.551213
     45 C15         3.0020    2.6900    3.9440 c3        1 MOL     -0.278867
     46 C16         2.2560    1.5510    3.3040 c         1 MOL      0.813633
     47 O7          1.2040    1.8070    2.7150 o         1 MOL     -0.751226
     48 O8          2.5750    0.3450    3.3990 o         1 MOL     -0.751226
     49 H21         2.8670    3.5800    1.3360 hn        1 MOL      0.244674
     50 H22         4.4950    4.1900    3.7540 h1        1 MOL      0.090083
     51 H23         2.3330    3.4830    4.2360 hc        1 MOL      0.071527
     52 H24         3.4930    2.3520    4.8670 hc        1 MOL      0.071527
     53 N5          5.1500    2.0210    1.4510 n         1 MOL      0.162321
     54 C17         6.1520    1.2330    0.8370 c3        1 MOL     -0.361845
     55 C18         6.3930   -0.1370    1.2660 c         1 MOL      0.595052
     56 O9          7.5540   -0.5660    1.3590 o         1 MOL     -0.588156
     57 H25         4.3980    2.3410    0.8710 hn        1 MOL     -0.109256
     58 H26         7.0690    1.7770    1.0530 h1        1 MOL      0.133611
     59 H27         5.8880    1.2630   -0.2230 h1        1 MOL      0.133611
     60 N6          5.3320   -0.9310    1.4700 n         1 MOL     -0.183235
     61 C19         5.4960   -2.3850    1.8370 c3        1 MOL     -0.008675
     62 C20         5.6090   -3.2720    0.6050 c         1 MOL      0.324389
     63 O10         5.7770   -4.4690    0.6330 o         1 MOL     -0.474578
     64 C21         4.5270   -2.7300    2.9250 c3        1 MOL     -0.147766
     65 C22         3.2040   -3.1710    2.3480 c         1 MOL      0.519187
     66 N7          2.7310   -4.4090    2.6130 n         1 MOL     -0.691050
     67 O11         2.6130   -2.5180    1.5120 o         1 MOL     -0.642843
     68 H28         4.3980   -0.5560    1.4970 hn        1 MOL      0.087809
     69 H29         6.4220   -2.4240    2.4110 h1        1 MOL      0.114867
     70 H30         4.3690   -1.8490    3.5590 hc        1 MOL      0.082088
     71 H31         4.9840   -3.5900    3.4130 hc        1 MOL      0.082088
     72 H32         3.1840   -4.9600    3.3230 hn        1 MOL      0.343872
     73 H33         1.8830   -4.6990    2.1380 hn        1 MOL      0.343872
     74 N8          5.4670   -2.6800   -0.5610 n         1 MOL     -0.209833
     75 C23         5.4290   -3.4080   -1.8210 c3        1 MOL     -0.199694
     76 C24         4.0380   -3.8470   -2.2820 c         1 MOL      0.563499
     77 O12         3.9810   -4.7060   -3.1690 o         1 MOL     -0.559295
     78 H34         5.1390   -1.7190   -0.6040 hn        1 MOL      0.281961
     79 H35         6.0750   -4.2870   -1.7460 h1        1 MOL      0.111486
     80 H36         5.8900   -2.7920   -2.5920 h1        1 MOL      0.111486
     81 N9          2.9850   -3.3850   -1.5790 n         1 MOL     -0.710882
     82 C25         1.5720   -3.8460   -1.6620 c3        1 MOL      0.933520
     83 C26         0.6120   -2.6590   -1.4690 c         1 MOL      0.036223
     84 O13         1.0190   -1.7020   -0.7910 o         1 MOL     -0.538829
     85 C27         1.2280   -4.9430   -0.7220 c3        1 MOL     -0.009678
     86 C28         1.8440   -6.3090   -0.9730 ca        1 MOL     -0.094151
     87 C29         2.7690   -6.8290   -0.0270 ca        1 MOL     -0.045221
     88 C30         1.3920   -7.0660   -2.0180 ca        1 MOL     -0.045221
     89 C31         3.2550   -8.1570   -0.2100 ca        1 MOL     -0.342139
     90 C32         1.8220   -8.4120   -2.1930 ca        1 MOL     -0.342139
     91 C33         2.7940   -8.9070   -1.3050 ca        1 MOL      0.416227
     92 O14         3.2560  -10.2050   -1.4400 oh        1 MOL     -0.506878
     93 H37         3.2660   -2.7360   -0.8510 hn        1 MOL      0.542703
     94 H38         1.5000   -4.1710   -2.7050 h1        1 MOL     -0.161739
     95 H39         0.1720   -5.1680   -0.8840 hc        1 MOL     -0.040719
     96 H40         1.4080   -4.6300    0.3100 hc        1 MOL     -0.040719
     97 H41         3.1560   -6.2130    0.7710 ha        1 MOL      0.097465
     98 H42         0.5570   -6.7220   -2.6010 ha        1 MOL      0.097465
     99 H43         3.8830   -8.6400    0.5310 ha        1 MOL      0.165400
    100 H44         1.4800   -9.0640   -2.9820 ha        1 MOL      0.165400
    101 H45         2.8010  -10.7130   -2.1080 ho        1 MOL      0.350704
    102 N10        -0.6160   -2.6990   -1.9590 n         1 MOL     -0.234368
    103 C34        -1.7710   -1.7740   -1.7920 c3        1 MOL     -0.176933
    104 C35        -3.0060   -2.6790   -1.6450 c         1 MOL      0.605966
    105 O15        -3.1850   -3.5660   -2.4880 o         1 MOL     -0.542787
    106 C36        -1.7700   -0.8850   -3.1350 c3        1 MOL      0.206233
    107 C37        -0.6930    0.1780   -3.0050 c3        1 MOL     -0.000802
    108 C38        -3.1760   -0.2640   -3.3180 c3        1 MOL     -0.151365
    109 C39        -0.8090    1.2410   -4.1100 c3        1 MOL     -0.287359
    110 H46        -0.7240   -3.5170   -2.5380 hn        1 MOL      0.218698
    111 H47        -1.6620   -1.1920   -0.8690 h1        1 MOL      0.010686
    112 H48        -1.6050   -1.5290   -3.9970 hc        1 MOL     -0.007461
    113 H49         0.2420   -0.3400   -3.1990 hc        1 MOL      0.067170
    114 H50        -0.8150    0.6720   -2.0420 hc        1 MOL      0.067170
    115 H51        -3.9310   -1.0520   -3.3960 hc        1 MOL      0.024112
    116 H52        -3.3270    0.3720   -2.4520 hc        1 MOL      0.024112
    117 H53        -3.2360    0.3190   -4.2380 hc        1 MOL      0.024112
    118 H54         0.1120    1.8400   -4.1150 hc        1 MOL      0.075903
    119 H55        -0.9810    0.7980   -5.0900 hc        1 MOL      0.075903
    120 H56        -1.5790    1.9620   -3.8700 hc        1 MOL      0.075903
    121 N11        -3.8580   -2.3780   -0.6560 n         1 MOL     -0.406755
    122 C40        -5.2120   -2.8700   -0.6230 c3        1 MOL      0.069567
    123 C41        -6.2690   -1.7470   -0.8600 c         1 MOL      0.354638
    124 O16        -5.9130   -0.5880   -0.8070 o         1 MOL     -0.321247
    125 C42        -5.5570   -3.6930    0.6890 c3        1 MOL     -0.011658
    126 O17        -5.7700   -2.9230    1.7880 oh        1 MOL     -0.541941
    127 H57        -3.6180   -1.5560   -0.1100 hn        1 MOL      0.319692
    128 H58        -5.3940   -3.5690   -1.4360 h1        1 MOL      0.049383
    129 H59        -4.7870   -4.4130    0.9480 h1        1 MOL      0.068794
    130 H60        -6.4470   -4.3030    0.5190 h1        1 MOL      0.068794
    131 H61        -6.3300   -3.4540    2.3630 ho        1 MOL      0.408388
    132 N12        -7.5570   -1.9880   -0.9140 n         1 MOL     -0.284989
    133 C43        -8.5850   -0.9500   -1.0020 c3        1 MOL     -0.054315
    134 C44        -8.9080   -0.3110    0.3540 c         1 MOL      0.531254
    135 O18        -9.6810    0.6970    0.3430 o         1 MOL     -0.561422
    136 C45        -9.8400   -1.5170   -1.7460 c3        1 MOL     -0.451460
    137 H62        -7.8750   -2.9380   -0.9080 hn        1 MOL      0.264221
    138 H63        -8.1720   -0.1320   -1.5850 h1        1 MOL      0.188525
    139 H64       -10.6590   -0.7990   -1.7000 hc        1 MOL      0.145400
    140 H65        -9.4050   -1.8830   -2.6820 hc        1 MOL      0.145400
    141 H66       -10.2690   -2.4270   -1.3300 hc        1 MOL      0.145400
    142 N13        -8.3540   -0.6820    1.4880 n         1 MOL     -0.374661
    143 C46        -8.4580    0.1030    2.7050 c3        1 MOL      0.170934
    144 C47        -7.5340    1.3630    2.6570 c         1 MOL      0.401784
    145 O19        -7.5820    2.1670    3.5850 o         1 MOL     -0.493886
    146 C48        -8.2040   -0.8390    3.9330 c3        1 MOL     -0.207228
    147 H67        -7.6590   -1.3970    1.3230 hn        1 MOL      0.139151
    148 H68        -9.5030    0.4140    2.7070 h1        1 MOL      0.079127
    149 H69        -8.9370   -1.6430    3.9640 hc        1 MOL      0.064876
    150 H70        -7.1750   -1.2100    3.9050 hc        1 MOL      0.064876
    151 H71        -8.3870   -0.1310    4.7340 hc        1 MOL      0.064876
    152 N14        -6.5130    1.3570    1.7330 n         1 MOL     -0.336987
    153 C49        -5.4460    2.4060    1.6980 c3        1 MOL      0.114578
    154 C50        -5.5030    3.0600    0.2380 c         1 MOL      0.356379
    155 O20        -5.0680    4.1900    0.0550 o         1 MOL     -0.526932
    156 C51        -3.9810    1.9350    1.9590 c3        1 MOL     -0.053211
    157 C52        -3.3350    1.1580    0.8330 c3        1 MOL     -0.136655
    158 C53        -1.9740    0.7650    1.1350 c         1 MOL      0.957319
    159 O21        -1.7340   -0.1090    1.9880 o         1 MOL     -0.850387
    160 O22        -0.9570    1.2100    0.5240 o         1 MOL     -0.850387
    161 H72        -6.3810    0.5270    1.1760 hn        1 MOL      0.263668
    162 H73        -5.7450    3.2350    2.3410 h1        1 MOL      0.086421
    163 H74        -4.1000    1.2410    2.7900 hc        1 MOL      0.025391
    164 H75        -3.4200    2.8100    2.2780 hc        1 MOL      0.025391
    165 H76        -3.4110    1.7190   -0.1000 hc        1 MOL      0.058622
    166 H77        -3.8770    0.2280    0.6650 hc        1 MOL      0.058622
    167 N15        -5.9960    2.3780   -0.7710 n         1 MOL     -0.062806
    168 C54        -5.9660    2.9690   -2.0690 c3        1 MOL     -0.158776
    169 H78        -5.0470    2.6780   -2.5780 h1        1 MOL      0.079869
    170 H79        -6.8250    2.6240   -2.6450 h1        1 MOL      0.079869
    171 H80        -6.0030    4.0540   -1.9750 h1        1 MOL      0.079869
    172 H81        -6.2250    1.3970   -0.6570 hn        1 MOL     -0.054431
    173 Ca1         0.8030   -0.4420    1.5550 Ca        1 MOL      1.802490
    174 O23        -1.2080   -2.7960    1.3460 oh        1 MOL     -0.744603
    175 H82        -1.6790   -2.4350    2.1060 ho        1 MOL      0.375885
    176 H83        -1.4750   -3.7220    1.3250 ho        1 MOL      0.375885
    177 O24         0.1620   -1.8010    3.7950 oh        1 MOL     -0.744603
    178 H84         0.1020   -1.5240    4.7040 ho        1 MOL      0.375885
    179 H85         0.2750   -2.7540    3.8420 ho        1 MOL      0.375885
@<TRIPOS>BOND
     1    1    2 1   
     2    1    4 1   
     3    1    5 1   
     4    1    6 1   
     5    2    3 2   
     6    2    7 1   
     7    7    8 1   
     8    7   15 1   
     9    8    9 1   
    10    8   11 1   
    11    8   16 1   
    12    9   10 2   
    13    9   19 1   
    14   11   12 1   
    15   11   17 1   
    16   11   18 1   
    17   12   13 1   
    18   12   14 1   
    19   19   20 1   
    20   19   28 1   
    21   20   21 1   
    22   20   23 1   
    23   20   29 1   
    24   21   22 2   
    25   21   41 1   
    26   23   24 1   
    27   23   30 1   
    28   23   31 1   
    29   24   25 1   
    30   24   32 1   
    31   24   33 1   
    32   25   26 1   
    33   25   34 1   
    34   25   35 1   
    35   26   27 1   
    36   26   36 1   
    37   26   37 1   
    38   27   38 1   
    39   27   39 1   
    40   27   40 1   
    41   41   42 1   
    42   41   49 1   
    43   42   43 1   
    44   42   45 1   
    45   42   50 1   
    46   43   44 2   
    47   43   53 1   
    48   45   46 1   
    49   45   51 1   
    50   45   52 1   
    51   46   47 1   
    52   46   48 1   
    53   53   54 1   
    54   53   57 1   
    55   54   55 1   
    56   54   58 1   
    57   54   59 1   
    58   55   56 2   
    59   55   60 1   
    60   60   61 1   
    61   60   68 1   
    62   61   62 1   
    63   61   64 1   
    64   61   69 1   
    65   62   63 2   
    66   62   74 1   
    67   64   65 1   
    68   64   70 1   
    69   64   71 1   
    70   65   66 1   
    71   65   67 2   
    72   66   72 1   
    73   66   73 1   
    74   74   75 1   
    75   74   78 1   
    76   75   76 1   
    77   75   79 1   
    78   75   80 1   
    79   76   77 2   
    80   76   81 1   
    81   81   82 1   
    82   81   93 1   
    83   82   83 1   
    84   82   85 1   
    85   82   94 1   
    86   83   84 2   
    87   83  102 1   
    88   85   86 1   
    89   85   95 1   
    90   85   96 1   
    91   86   87 ar  
    92   86   88 ar  
    93   87   89 ar  
    94   87   97 1   
    95   88   90 ar  
    96   88   98 1   
    97   89   91 ar  
    98   89   99 1   
    99   90   91 ar  
   100   90  100 1   
   101   91   92 1   
   102   92  101 1   
   103  102  103 1   
   104  102  110 1   
   105  103  104 1   
   106  103  106 1   
   107  103  111 1   
   108  104  105 2   
   109  104  121 1   
   110  106  107 1   
   111  106  108 1   
   112  106  112 1   
   113  107  109 1   
   114  107  113 1   
   115  107  114 1   
   116  108  115 1   
   117  108  116 1   
   118  108  117 1   
   119  109  118 1   
   120  109  119 1   
   121  109  120 1   
   122  121  122 1   
   123  121  127 1   
   124  122  123 1   
   125  122  125 1   
   126  122  128 1   
   127  123  124 2   
   128  123  132 1   
   129  125  126 1   
   130  125  129 1   
   131  125  130 1   
   132  126  131 1   
   133  132  133 1   
   134  132  137 1   
   135  133  134 1   
   136  133  136 1   
   137  133  138 1   
   138  134  135 2   
   139  134  142 1   
   140  136  139 1   
   141  136  140 1   
   142  136  141 1   
   143  142  143 1   
   144  142  147 1   
   145  143  144 1   
   146  143  146 1   
   147  143  148 1   
   148  144  145 2   
   149  144  152 1   
   150  146  149 1   
   151  146  150 1   
   152  146  151 1   
   153  152  153 1   
   154  152  161 1   
   155  153  154 1   
   156  153  156 1   
   157  153  162 1   
   158  154  155 2   
   159  154  167 1   
   160  156  157 1   
   161  156  163 1   
   162  156  164 1   
   163  157  158 1   
   164  157  165 1   
   165  157  166 1   
   166  158  159 1   
   167  158  160 1   
   168  167  168 1   
   169  167  172 1   
   170  168  169 1   
   171  168  170 1   
   172  168  171 1   
   173  174  175 1   
   174  174  176 1   
   175  177  178 1   
   176  177  179 1   
@<TRIPOS>SUBSTRUCTURE
     1 MOL         1 TEMP              0 ****  ****    0 ROOT
