@<TRIPOS>MOLECULE
MOL
  175   173     1     0     0
SMALL
resp


@<TRIPOS>ATOM
      1 C1         -0.3880   -3.0810    6.0720 c3        1 MOL     -0.433358
      2 C2          0.0240   -3.2890    4.6220 c         1 MOL      0.698547
      3 O1         -0.8430   -3.4210    3.7790 o         1 MOL     -0.516379
      4 H1          0.4350   -2.6250    6.6220 hc        1 MOL      0.103001
      5 H2         -1.2590   -2.4260    6.1130 hc        1 MOL      0.103001
      6 H3         -0.6360   -4.0430    6.5220 hc        1 MOL      0.103001
      7 N1          1.3060   -3.4290    4.3740 n         1 MOL     -0.580840
      8 C3          1.9520   -3.2490    3.0350 c3        1 MOL      0.057247
      9 C4          1.8440   -4.5470    2.1180 c         1 MOL      0.542505
     10 O2          1.8050   -5.6680    2.6690 o         1 MOL     -0.559441
     11 C5          3.4400   -2.9230    3.1870 c3        1 MOL     -0.284154
     12 C6          4.0910   -2.3150    1.9170 c         1 MOL      0.760532
     13 O3          3.5180   -2.0870    0.8170 o         1 MOL     -0.681626
     14 O4          5.2770   -1.9910    2.0910 o         1 MOL     -0.681626
     15 H4          1.8900   -3.3310    5.1910 hn        1 MOL      0.325555
     16 H5          1.5250   -2.3650    2.5670 h1        1 MOL      0.087083
     17 H6          4.0080   -3.7990    3.5250 hc        1 MOL      0.074531
     18 H7          3.5850   -2.2440    4.0260 hc        1 MOL      0.074531
     19 N2          1.8680   -4.3960    0.7920 n         1 MOL     -0.447951
     20 C7          1.9060   -5.4710   -0.1990 c3        1 MOL      0.276262
     21 C8          2.8460   -5.1400   -1.4250 c         1 MOL      0.501166
     22 O5          2.7880   -5.8470   -2.4490 o         1 MOL     -0.564701
     23 C9          0.4660   -5.8400   -0.7560 c3        1 MOL     -0.348001
     24 H8          1.8070   -3.4550    0.4340 hn        1 MOL      0.381533
     25 H9          2.4520   -6.2790    0.2870 h1        1 MOL     -0.012192
     26 H10        -0.1370   -6.1380    0.0980 hc        1 MOL      0.089113
     27 H11         0.1010   -4.9330   -1.2290 hc        1 MOL      0.089113
     28 H12         0.6140   -6.6420   -1.4770 hc        1 MOL      0.089113
     29 N3          3.6710   -4.1140   -1.3420 n         1 MOL     -0.400115
     30 C10         4.6670   -3.8580   -2.4470 c3        1 MOL      0.134545
     31 C11         6.0080   -3.1480   -2.0780 c         1 MOL      0.353876
     32 O6          7.0440   -3.4310   -2.6970 o         1 MOL     -0.551015
     33 C12         3.9870   -3.0050   -3.5580 c3        1 MOL     -0.011370
     34 C13         3.1780   -1.8150   -3.1970 c         1 MOL      0.735883
     35 O7          2.2200   -1.6050   -3.8900 o         1 MOL     -0.687873
     36 O8          3.4750   -1.1780   -2.1870 o         1 MOL     -0.687873
     37 H13         3.5490   -3.4320   -0.6060 hn        1 MOL      0.107864
     38 H14         4.9420   -4.8240   -2.8670 h1        1 MOL      0.045033
     39 H15         3.4170   -3.7100   -4.1560 hc        1 MOL     -0.018972
     40 H16         4.8030   -2.6490   -4.1870 hc        1 MOL     -0.018972
     41 N4          6.0200   -2.3160   -1.0400 n         1 MOL     -0.003318
     42 C14         7.2040   -1.6070   -0.6340 c3        1 MOL     -0.362468
     43 C15         7.3220   -0.1500   -1.0890 c         1 MOL      0.566860
     44 O9          8.2260    0.5770   -0.7320 o         1 MOL     -0.590761
     45 H17         5.1840   -2.0560   -0.5350 hn        1 MOL      0.057069
     46 H18         8.1440   -2.1390   -0.7720 h1        1 MOL      0.155771
     47 H19         7.1540   -1.3900    0.4350 h1        1 MOL      0.155771
     48 N5          6.3030    0.3730   -1.8610 n         1 MOL     -0.227192
     49 C16         6.3050    1.7380   -2.3760 c3        1 MOL     -0.176674
     50 C17         6.3220    2.9660   -1.3440 c         1 MOL      0.519476
     51 O10         6.3960    4.1250   -1.7300 o         1 MOL     -0.552069
     52 C18         5.2170    2.0060   -3.4300 c3        1 MOL      0.022580
     53 C19         3.8150    1.9500   -2.7540 c         1 MOL      0.422341
     54 N6          2.7820    2.1980   -3.6030 n         1 MOL     -0.597336
     55 O11         3.6100    1.8100   -1.5060 o         1 MOL     -0.466798
     56 H20         5.4460   -0.1540   -1.9390 hn        1 MOL      0.140726
     57 H21         7.2700    1.7440   -2.8850 h1        1 MOL      0.111126
     58 H22         5.3300    1.2930   -4.2460 hc        1 MOL      0.033354
     59 H23         5.3940    2.9660   -3.9230 hc        1 MOL      0.033354
     60 H24         2.9920    2.3430   -4.5750 hn        1 MOL      0.321053
     61 H25         1.8630    1.9780   -3.2470 hn        1 MOL      0.321053
     62 N7          6.3220    2.7870    0.0090 n         1 MOL     -0.299968
     63 C20         6.3290    3.9090    1.0370 c3        1 MOL     -0.065465
     64 C21         4.9870    4.3390    1.6290 c         1 MOL      0.473643
     65 O12         4.9780    4.9910    2.6410 o         1 MOL     -0.559681
     66 H26         6.1940    1.8310    0.3250 hn        1 MOL      0.256124
     67 H27         6.7770    4.7590    0.5270 h1        1 MOL      0.081113
     68 H28         7.0600    3.6500    1.8090 h1        1 MOL      0.081113
     69 N8          3.8710    3.8730    1.0250 n         1 MOL     -0.243091
     70 C22         2.5740    4.5010    1.2370 c3        1 MOL     -0.125168
     71 C23         1.4150    3.5070    1.2610 c         1 MOL      0.512597
     72 O13         1.4150    2.4300    0.6820 o         1 MOL     -0.618674
     73 C24         2.3620    5.5870    0.1720 c3        1 MOL      0.537970
     74 C25         3.3740    6.7130    0.4070 c3        1 MOL     -0.659156
     75 O14         2.6490    5.0590   -1.0940 oh        1 MOL     -0.589416
     76 H29         3.9380    3.1510    0.3160 hn        1 MOL      0.190953
     77 H30         2.5610    5.0100    2.1950 h1        1 MOL      0.080195
     78 H31         1.3350    5.9390    0.1700 h1        1 MOL     -0.066551
     79 H32         1.8200    4.6890   -1.3950 ho        1 MOL      0.384966
     80 H33         4.3770    6.2850    0.3500 hc        1 MOL      0.174241
     81 H34         3.3740    7.3390   -0.4850 hc        1 MOL      0.174241
     82 H35         3.2260    7.1950    1.3660 hc        1 MOL      0.174241
     83 N9          0.3090    3.9300    1.9120 n         1 MOL     -0.393145
     84 C26        -0.9610    3.2160    1.8800 c3        1 MOL      0.023343
     85 C27        -1.5840    3.1790    0.5030 c         1 MOL      0.501781
     86 O15        -1.8830    4.2060   -0.1200 o         1 MOL     -0.584358
     87 C28        -1.9740    3.8640    2.8570 c3        1 MOL      0.122022
     88 C29        -1.5210    3.8370    4.2680 c3        1 MOL     -0.110547
     89 C30        -3.3700    3.2870    2.6130 c3        1 MOL     -0.116246
     90 C31        -1.3830    2.5080    4.9760 c3        1 MOL     -0.064358
     91 H36         0.3530    4.8670    2.2770 hn        1 MOL      0.241627
     92 H37        -0.7600    2.1830    2.1640 h1        1 MOL      0.081834
     93 H38        -2.0750    4.9130    2.5810 hc        1 MOL     -0.004382
     94 H39        -2.2660    4.4440    4.7890 hc        1 MOL      0.023428
     95 H40        -0.5680    4.3380    4.3480 hc        1 MOL      0.023428
     96 H41        -3.3950    2.2580    2.2790 hc        1 MOL      0.017701
     97 H42        -3.9350    3.2620    3.5460 hc        1 MOL      0.017701
     98 H43        -3.8490    3.9280    1.8770 hc        1 MOL      0.017701
     99 H44        -0.5900    1.9400    4.5040 hc        1 MOL      0.016908
    100 H45        -1.2890    2.5630    6.0620 hc        1 MOL      0.016908
    101 H46        -2.2050    1.8220    4.7740 hc        1 MOL      0.016908
    102 N10        -1.7600    1.9830   -0.0490 n         1 MOL     -0.119625
    103 C32        -2.5390    1.7820   -1.3570 c3        1 MOL      0.024906
    104 C33        -4.0090    1.3840   -1.0560 c         1 MOL      0.410586
    105 O16        -4.3370    1.0020    0.0650 o         1 MOL     -0.325077
    106 C34        -1.7880    0.7320   -2.2620 c3        1 MOL     -0.371362
    107 C35        -0.3380    1.0880   -2.4990 c         1 MOL      0.780921
    108 O17         0.5590    0.5500   -1.8240 o         1 MOL     -0.696009
    109 O18        -0.0680    2.0590   -3.3070 o         1 MOL     -0.696009
    110 H47        -1.3440    1.1590    0.3510 hn        1 MOL      0.210394
    111 H48        -2.6590    2.7130   -1.9060 h1        1 MOL      0.068157
    112 H49        -2.3200    0.6160   -3.2000 hc        1 MOL      0.110476
    113 H50        -1.8290   -0.1910   -1.6860 hc        1 MOL      0.110476
    114 N11        -4.9290    1.4970   -2.0740 n         1 MOL     -0.615681
    115 C36        -6.3760    1.3230   -1.8540 c3        1 MOL      0.306234
    116 C37        -6.6110   -0.0420   -1.1890 c         1 MOL      0.429903
    117 O19        -7.3130   -0.0300   -0.2010 o         1 MOL     -0.516851
    118 C38        -7.2820    1.4590   -3.1480 c3        1 MOL     -0.255665
    119 C39        -8.7220    1.3760   -2.7110 ca        1 MOL      0.205433
    120 C40        -9.4250    2.3970   -2.0570 ca        1 MOL     -0.290745
    121 C41        -9.4100    0.1650   -2.9740 ca        1 MOL     -0.290745
    122 C42       -10.7730    2.2700   -1.5860 ca        1 MOL      0.049555
    123 C43       -10.7340    0.0370   -2.5190 ca        1 MOL      0.049555
    124 C44       -11.4330    1.1020   -1.9230 ca        1 MOL     -0.267319
    125 H51        -4.5550    1.7150   -2.9860 hn        1 MOL      0.350340
    126 H52        -6.7720    1.9670   -1.0750 h1        1 MOL      0.038561
    127 H53        -7.0210    0.6530   -3.8340 hc        1 MOL      0.077059
    128 H54        -6.9850    2.3900   -3.6380 hc        1 MOL      0.077059
    129 H55        -8.7490    3.2190   -1.8760 ha        1 MOL      0.130790
    130 H56        -8.9020   -0.5770   -3.5610 ha        1 MOL      0.130790
    131 H57       -11.2930    3.0840   -1.0950 ha        1 MOL      0.078360
    132 H58       -11.3190   -0.8370   -2.7660 ha        1 MOL      0.078360
    133 H59       -12.4530    0.9490   -1.6000 ha        1 MOL      0.132277
    134 N12        -6.0460   -1.1740   -1.6490 n         1 MOL     -0.087550
    135 C45        -6.2790   -2.4900   -0.9730 c3        1 MOL     -0.066997
    136 C46        -5.7320   -2.6160    0.4540 c         1 MOL      0.310661
    137 O20        -6.0760   -3.5070    1.2150 o         1 MOL     -0.493353
    138 C47        -5.7190   -3.6050   -1.8680 c3        1 MOL      0.027282
    139 C48        -5.3840   -2.8750   -3.1760 c3        1 MOL     -0.015351
    140 C49        -5.2280   -1.4350   -2.8090 c3        1 MOL     -0.084728
    141 H60        -7.3650   -2.5970   -0.9320 h1        1 MOL      0.071317
    142 H61        -4.8170   -4.0180   -1.4270 hc        1 MOL      0.035933
    143 H62        -6.3380   -4.4980   -1.9450 hc        1 MOL      0.035933
    144 H63        -4.5330   -3.2900   -3.7120 hc        1 MOL      0.019909
    145 H64        -6.2480   -2.9900   -3.8360 hc        1 MOL      0.019909
    146 H65        -4.1890   -1.2930   -2.4970 h1        1 MOL      0.058823
    147 H66        -5.2810   -0.6610   -3.5740 h1        1 MOL      0.058823
    148 N13        -4.7660   -1.7240    0.8130 n         1 MOL      0.014969
    149 C50        -4.0610   -1.6890    2.0830 c3        1 MOL     -0.237834
    150 C51        -4.8720   -0.8570    3.1030 c         1 MOL      0.575394
    151 O21        -4.9940   -1.2340    4.2240 o         1 MOL     -0.547971
    152 C52        -2.6580   -1.1040    1.8910 c3        1 MOL      0.133942
    153 C53        -1.8880   -1.8220    0.8090 c3        1 MOL      0.011268
    154 C54        -0.3810   -1.4780    0.6610 c         1 MOL      0.409666
    155 O22         0.3340   -2.0840   -0.1530 o         1 MOL     -0.662735
    156 O23         0.0950   -0.4540    1.1080 o         1 MOL     -0.662735
    157 H67        -4.5280   -0.9700    0.1970 hn        1 MOL      0.018023
    158 H68        -3.8430   -2.7030    2.4180 h1        1 MOL      0.133789
    159 H69        -2.0570   -1.1650    2.8040 hc        1 MOL     -0.044876
    160 H70        -2.7250   -0.0460    1.6240 hc        1 MOL     -0.044876
    161 H71        -2.4480   -1.7290   -0.1150 hc        1 MOL      0.029968
    162 H72        -1.8900   -2.8780    1.0660 hc        1 MOL      0.029968
    163 N14        -5.5190    0.2430    2.5680 n         1 MOL     -0.219411
    164 C55        -6.4690    1.0450    3.3600 c3        1 MOL     -0.123314
    165 H73        -7.4590    0.9850    2.9080 h1        1 MOL      0.057807
    166 H74        -6.5100    0.6600    4.3780 h1        1 MOL      0.057807
    167 H75        -6.1410    2.0850    3.3770 h1        1 MOL      0.057807
    168 H76        -5.3110    0.5500    1.6290 hn        1 MOL      0.165254
    169 Ca1         2.2850   -0.0670   -0.2020 Ca        1 MOL      1.712189
    170 O24         2.0680    0.2660    2.6700 oh        1 MOL     -0.819553
    171 H77         1.9050   -0.0930    3.5350 ho        1 MOL      0.401578
    172 H78         1.2010    0.2770    2.2480 ho        1 MOL      0.401578
    173 O25         5.1570    0.4150    1.1120 oh        1 MOL     -0.819553
    174 H79         4.8010    0.6490    1.9670 ho        1 MOL      0.401578
    175 H80         5.4730   -0.4790    1.2220 ho        1 MOL      0.401578
@<TRIPOS>BOND
     1    1    2 1   
     2    1    4 1   
     3    1    5 1   
     4    1    6 1   
     5    2    3 2   
     6    2    7 1   
     7    7    8 1   
     8    7   15 1   
     9    8    9 1   
    10    8   11 1   
    11    8   16 1   
    12    9   10 2   
    13    9   19 1   
    14   11   12 1   
    15   11   17 1   
    16   11   18 1   
    17   12   13 1   
    18   12   14 1   
    19   19   20 1   
    20   19   24 1   
    21   20   21 1   
    22   20   23 1   
    23   20   25 1   
    24   21   22 2   
    25   21   29 1   
    26   23   26 1   
    27   23   27 1   
    28   23   28 1   
    29   29   30 1   
    30   29   37 1   
    31   30   31 1   
    32   30   33 1   
    33   30   38 1   
    34   31   32 2   
    35   31   41 1   
    36   33   34 1   
    37   33   39 1   
    38   33   40 1   
    39   34   35 1   
    40   34   36 1   
    41   41   42 1   
    42   41   45 1   
    43   42   43 1   
    44   42   46 1   
    45   42   47 1   
    46   43   44 2   
    47   43   48 1   
    48   48   49 1   
    49   48   56 1   
    50   49   50 1   
    51   49   52 1   
    52   49   57 1   
    53   50   51 2   
    54   50   62 1   
    55   52   53 1   
    56   52   58 1   
    57   52   59 1   
    58   53   54 1   
    59   53   55 2   
    60   54   60 1   
    61   54   61 1   
    62   62   63 1   
    63   62   66 1   
    64   63   64 1   
    65   63   67 1   
    66   63   68 1   
    67   64   65 2   
    68   64   69 1   
    69   69   70 1   
    70   69   76 1   
    71   70   71 1   
    72   70   73 1   
    73   70   77 1   
    74   71   72 2   
    75   71   83 1   
    76   73   74 1   
    77   73   75 1   
    78   73   78 1   
    79   74   80 1   
    80   74   81 1   
    81   74   82 1   
    82   75   79 1   
    83   83   84 1   
    84   83   91 1   
    85   84   85 1   
    86   84   87 1   
    87   84   92 1   
    88   85   86 2   
    89   85  102 1   
    90   87   88 1   
    91   87   89 1   
    92   87   93 1   
    93   88   90 1   
    94   88   94 1   
    95   88   95 1   
    96   89   96 1   
    97   89   97 1   
    98   89   98 1   
    99   90   99 1   
   100   90  100 1   
   101   90  101 1   
   102  102  103 1   
   103  102  110 1   
   104  103  104 1   
   105  103  106 1   
   106  103  111 1   
   107  104  105 2   
   108  104  114 1   
   109  106  107 1   
   110  106  112 1   
   111  106  113 1   
   112  107  108 1   
   113  107  109 1   
   114  114  115 1   
   115  114  125 1   
   116  115  116 1   
   117  115  118 1   
   118  115  126 1   
   119  116  117 2   
   120  116  134 1   
   121  118  119 1   
   122  118  127 1   
   123  118  128 1   
   124  119  120 ar  
   125  119  121 ar  
   126  120  122 ar  
   127  120  129 1   
   128  121  123 ar  
   129  121  130 1   
   130  122  124 ar  
   131  122  131 1   
   132  123  124 ar  
   133  123  132 1   
   134  124  133 1   
   135  134  135 1   
   136  134  140 1   
   137  135  136 1   
   138  135  138 1   
   139  135  141 1   
   140  136  137 2   
   141  136  148 1   
   142  138  139 1   
   143  138  142 1   
   144  138  143 1   
   145  139  140 1   
   146  139  144 1   
   147  139  145 1   
   148  140  146 1   
   149  140  147 1   
   150  148  149 1   
   151  148  157 1   
   152  149  150 1   
   153  149  152 1   
   154  149  158 1   
   155  150  151 2   
   156  150  163 1   
   157  152  153 1   
   158  152  159 1   
   159  152  160 1   
   160  153  154 1   
   161  153  161 1   
   162  153  162 1   
   163  154  155 1   
   164  154  156 1   
   165  163  164 1   
   166  163  168 1   
   167  164  165 1   
   168  164  166 1   
   169  164  167 1   
   170  170  171 1   
   171  170  172 1   
   172  173  174 1   
   173  173  175 1   
@<TRIPOS>SUBSTRUCTURE
     1 MOL         1 TEMP              0 ****  ****    0 ROOT
