@<TRIPOS>MOLECULE
MOL
  175   173     1     0     0
SMALL
resp


@<TRIPOS>ATOM
      1 C1         -0.0570   -3.9720    5.3890 c3        1 MOL     -0.392442
      2 C2          0.5200   -3.8900    4.0410 c         1 MOL      0.686158
      3 O1         -0.2530   -3.8460    3.0780 o         1 MOL     -0.573923
      4 H1          0.5880   -3.4440    6.0920 hc        1 MOL      0.093764
      5 H2         -1.0460   -3.5150    5.3900 hc        1 MOL      0.093764
      6 H3         -0.1390   -5.0170    5.6870 hc        1 MOL      0.093764
      7 N1          1.8140   -3.8650    3.9080 n         1 MOL     -0.599588
      8 C3          2.4180   -3.4790    2.6880 c3        1 MOL      0.459866
      9 C4          2.5350   -4.5720    1.6360 c         1 MOL      0.357521
     10 O2          3.2840   -5.5250    1.7030 o         1 MOL     -0.558995
     11 C5          3.7370   -2.8580    3.0270 c3        1 MOL     -0.458468
     12 C6          4.2080   -2.0830    1.8040 c         1 MOL      0.994289
     13 O3          5.3270   -1.5630    1.8710 o         1 MOL     -0.767535
     14 O4          3.5470   -1.8700    0.7790 o         1 MOL     -0.767535
     15 H4          2.3380   -4.0350    4.7490 hn        1 MOL      0.311374
     16 H5          1.7010   -2.7770    2.2720 h1        1 MOL     -0.041835
     17 H6          4.5800   -3.5270    3.1920 hc        1 MOL      0.077270
     18 H7          3.6160   -2.1240    3.8290 hc        1 MOL      0.077270
     19 N2          1.6540   -4.4400    0.6250 n         1 MOL     -0.195786
     20 C7          1.6320   -5.3170   -0.5460 c3        1 MOL      0.015324
     21 C8          2.8060   -5.1700   -1.5250 c         1 MOL      0.612927
     22 O5          3.1260   -6.1020   -2.2780 o         1 MOL     -0.599787
     23 C9          0.2360   -5.1960   -1.1300 c3        1 MOL     -0.206280
     24 H8          0.9530   -3.7250    0.6100 hn        1 MOL      0.172844
     25 H9          1.6130   -6.3150   -0.1270 h1        1 MOL      0.060201
     26 H10         0.2990   -5.6570   -2.1150 hc        1 MOL      0.056713
     27 H11        -0.4970   -5.8150   -0.6120 hc        1 MOL      0.056713
     28 H12         0.0270   -4.1300   -1.2260 hc        1 MOL      0.056713
     29 N3          3.5650   -4.0330   -1.4880 n         1 MOL     -0.494227
     30 C10         4.4810   -3.5600   -2.5730 c3        1 MOL      0.239869
     31 C11         5.8590   -2.9870   -2.1700 c         1 MOL      0.311874
     32 O6          6.6850   -2.9290   -3.0460 o         1 MOL     -0.516550
     33 C12         3.8270   -2.5120   -3.4640 c3        1 MOL     -0.431296
     34 C13         3.1220   -1.4310   -2.6420 c         1 MOL      0.776578
     35 O7          1.9120   -1.2260   -2.8410 o         1 MOL     -0.691251
     36 O8          3.8260   -0.8690   -1.7990 o         1 MOL     -0.691251
     37 H13         3.2610   -3.3140   -0.8420 hn        1 MOL      0.303575
     38 H14         4.8150   -4.4260   -3.1570 h1        1 MOL      0.066294
     39 H15         3.1470   -3.1160   -4.0660 hc        1 MOL      0.098190
     40 H16         4.5820   -1.9750   -4.0430 hc        1 MOL      0.098190
     41 N4          6.0830   -2.5670   -0.9420 n         1 MOL     -0.159711
     42 C14         7.2120   -1.6970   -0.5840 c3        1 MOL     -0.112506
     43 C15         7.3730   -0.3930   -1.4880 c         1 MOL      0.453908
     44 O9          8.4970   -0.0480   -1.8910 o         1 MOL     -0.576439
     45 H17         5.3170   -2.5710   -0.2880 hn        1 MOL      0.086802
     46 H18         8.1450   -2.2620   -0.6370 h1        1 MOL      0.089152
     47 H19         7.0790   -1.2860    0.4110 h1        1 MOL      0.089152
     48 N5          6.3480    0.4790   -1.5030 n         1 MOL     -0.322952
     49 C16         6.2860    1.8050   -2.2750 c3        1 MOL      0.042391
     50 C17         6.3940    2.9860   -1.3490 c         1 MOL      0.417520
     51 O10         6.5140    4.1640   -1.7580 o         1 MOL     -0.574258
     52 C18         4.9980    1.9080   -3.1670 c3        1 MOL     -0.168887
     53 C19         3.7120    2.2130   -2.3990 c         1 MOL      0.476353
     54 N6          2.6520    2.6060   -3.0300 n         1 MOL     -0.546776
     55 O11         3.5930    2.0710   -1.1750 o         1 MOL     -0.499660
     56 H20         5.4690    0.0390   -1.3040 hn        1 MOL      0.436388
     57 H21         7.1660    1.8920   -2.9080 h1        1 MOL      0.103003
     58 H22         4.8130    1.0170   -3.7790 hc        1 MOL      0.060985
     59 H23         5.2410    2.7710   -3.7860 hc        1 MOL      0.060985
     60 H24         2.8080    2.8770   -3.9900 hn        1 MOL      0.303534
     61 H25         1.7570    2.5340   -2.5780 hn        1 MOL      0.303534
     62 N7          6.3080    2.7660   -0.0360 n         1 MOL     -0.172877
     63 C20         6.5200    3.6750    1.1270 c3        1 MOL     -0.219966
     64 C21         5.2780    4.3100    1.5650 c         1 MOL      0.528980
     65 O12         5.4420    5.1020    2.5270 o         1 MOL     -0.603428
     66 H26         6.1450    1.7910    0.1500 hn        1 MOL      0.114164
     67 H27         7.2940    4.4160    0.9730 h1        1 MOL      0.130536
     68 H28         6.8550    3.0840    1.9780 h1        1 MOL      0.130536
     69 N8          4.1000    4.1020    0.9500 n         1 MOL     -0.237952
     70 C22         2.7790    4.6950    1.3300 c3        1 MOL     -0.050517
     71 C23         1.6990    3.5630    1.5300 c         1 MOL      0.596156
     72 O13         1.9750    2.3880    1.3170 o         1 MOL     -0.609553
     73 C24         2.3520    5.6990    0.2570 c3        1 MOL      0.498788
     74 C25         3.2900    6.8650   -0.0860 c3        1 MOL     -0.351163
     75 O14         2.1650    4.9670   -1.0070 oh        1 MOL     -0.665121
     76 H29         4.1200    3.4770    0.1490 hn        1 MOL      0.190442
     77 H30         2.8420    5.2160    2.2850 h1        1 MOL      0.045418
     78 H31         1.5190    6.2280    0.7310 h1        1 MOL     -0.017996
     79 H32         2.9690    4.4770   -1.1850 ho        1 MOL      0.386140
     80 H33         2.9220    7.3950   -0.9610 hc        1 MOL      0.077781
     81 H34         3.2640    7.5720    0.7440 hc        1 MOL      0.077781
     82 H35         4.3080    6.5450   -0.3210 hc        1 MOL      0.077781
     83 N9          0.4410    3.8770    1.9200 n         1 MOL     -0.608443
     84 C26        -0.6840    2.9290    1.9490 c3        1 MOL      0.030298
     85 C27        -1.5410    3.1230    0.6790 c         1 MOL      0.581000
     86 O15        -1.9980    4.2430    0.4650 o         1 MOL     -0.595733
     87 C28        -1.5730    3.0530    3.2320 c3        1 MOL      0.142794
     88 C29        -0.7550    3.0120    4.5830 c3        1 MOL      0.251213
     89 C30        -2.6010    1.8750    3.2240 c3        1 MOL     -0.259936
     90 C31        -1.5350    3.1260    5.8520 c3        1 MOL     -0.327654
     91 H36         0.2220    4.7780    2.3160 hn        1 MOL      0.313304
     92 H37        -0.3330    1.8920    1.9830 h1        1 MOL      0.052461
     93 H38        -2.0940    4.0070    3.1340 hc        1 MOL     -0.020260
     94 H39        -0.0930    3.8760    4.5720 hc        1 MOL     -0.055820
     95 H40        -0.1260    2.1160    4.5840 hc        1 MOL     -0.055820
     96 H41        -3.2680    1.8870    4.0760 hc        1 MOL      0.041611
     97 H42        -3.2320    1.9020    2.3330 hc        1 MOL      0.041611
     98 H43        -2.0810    0.9090    3.2430 hc        1 MOL      0.041611
     99 H44        -2.1880    3.9890    5.7550 hc        1 MOL      0.068763
    100 H45        -2.1590    2.2460    5.9990 hc        1 MOL      0.068763
    101 H46        -0.7870    3.1760    6.6440 hc        1 MOL      0.068763
    102 N10        -1.8750    2.0090    0.0050 n         1 MOL     -0.154670
    103 C32        -2.6890    1.8750   -1.1790 c3        1 MOL     -0.017006
    104 C33        -4.1580    1.3820   -0.9350 c         1 MOL      0.403337
    105 O16        -4.3710    0.5990   -0.0300 o         1 MOL     -0.228657
    106 C34        -1.9290    0.9590   -2.1760 c3        1 MOL     -0.175696
    107 C35        -0.5540    1.5660   -2.5830 c         1 MOL      0.667219
    108 O17        -0.4000    1.8180   -3.8450 o         1 MOL     -0.665864
    109 O18         0.3760    1.4680   -1.7920 o         1 MOL     -0.665864
    110 H47        -1.4650    1.1410    0.3190 hn        1 MOL      0.058290
    111 H48        -2.7600    2.8080   -1.7350 h1        1 MOL      0.047835
    112 H49        -2.5020    0.8060   -3.0910 hc        1 MOL      0.065230
    113 H50        -1.7050    0.0160   -1.6820 hc        1 MOL      0.065230
    114 N11        -5.2190    1.8530   -1.6390 n         1 MOL     -0.667672
    115 C36        -6.6060    1.3900   -1.3870 c3        1 MOL      0.382266
    116 C37        -6.9020   -0.1450   -1.1540 c         1 MOL      0.235558
    117 O19        -7.5420   -0.4370   -0.1140 o         1 MOL     -0.455281
    118 C38        -7.4830    2.0540   -2.3660 c3        1 MOL     -0.370806
    119 C39        -8.9820    1.8950   -1.9670 ca        1 MOL      0.233586
    120 C40        -9.8560    1.0640   -2.7350 ca        1 MOL     -0.261399
    121 C41        -9.5760    2.6040   -0.9460 ca        1 MOL     -0.261399
    122 C42       -11.2150    0.9270   -2.3470 ca        1 MOL     -0.020605
    123 C43       -10.9390    2.6130   -0.6520 ca        1 MOL     -0.020605
    124 C44       -11.7680    1.7540   -1.3860 ca        1 MOL     -0.190637
    125 H51        -5.0450    2.5730   -2.3240 hn        1 MOL      0.362537
    126 H52        -6.8390    1.7610   -0.3860 h1        1 MOL      0.071567
    127 H53        -7.4460    1.5330   -3.3240 hc        1 MOL      0.108157
    128 H54        -7.1420    3.0480   -2.6490 hc        1 MOL      0.108157
    129 H55        -9.4400    0.4420   -3.5220 ha        1 MOL      0.129693
    130 H56        -8.9800    3.3350   -0.4270 ha        1 MOL      0.129693
    131 H57       -11.9120    0.2850   -2.8640 ha        1 MOL      0.092921
    132 H58       -11.2810    3.2460    0.1540 ha        1 MOL      0.092921
    133 H59       -12.8280    1.6700   -1.2430 ha        1 MOL      0.112548
    134 N12        -6.2540   -1.1820   -1.8080 n         1 MOL     -0.036249
    135 C45        -6.3620   -2.6100   -1.3820 c3        1 MOL      0.081002
    136 C46        -5.6770   -2.9110    0.0260 c         1 MOL      0.353221
    137 O20        -6.0400   -3.8640    0.6540 o         1 MOL     -0.524802
    138 C47        -5.6110   -3.4080   -2.4430 c3        1 MOL     -0.170857
    139 C48        -5.5740   -2.5160   -3.6590 c3        1 MOL      0.224040
    140 C49        -5.5660   -1.1190   -3.1500 c3        1 MOL     -0.178513
    141 H60        -7.4370   -2.7440   -1.2760 h1        1 MOL      0.042146
    142 H61        -4.5590   -3.4810   -2.1450 hc        1 MOL      0.054558
    143 H62        -6.0560   -4.3970   -2.6100 hc        1 MOL      0.054558
    144 H63        -4.8340   -2.7250   -4.4340 hc        1 MOL     -0.031690
    145 H64        -6.5340   -2.6390   -4.1660 hc        1 MOL     -0.031690
    146 H65        -4.5160   -0.8870   -3.0030 h1        1 MOL      0.063669
    147 H66        -6.0820   -0.4750   -3.8560 h1        1 MOL      0.063669
    148 N13        -4.7940   -2.0590    0.5000 n         1 MOL     -0.018609
    149 C50        -4.1090   -2.3040    1.7650 c3        1 MOL     -0.206548
    150 C51        -4.9050   -1.5950    2.8650 c         1 MOL      0.496073
    151 O21        -4.9700   -1.9680    4.0380 o         1 MOL     -0.580014
    152 C52        -2.7520   -1.6750    1.7340 c3        1 MOL      0.064490
    153 C53        -1.7960   -2.2330    0.6270 c3        1 MOL     -0.180385
    154 C54        -0.5030   -1.4380    0.4990 c         1 MOL      0.522219
    155 O22         0.3820   -1.8650   -0.2490 o         1 MOL     -0.566164
    156 O23        -0.4360   -0.2450    0.8550 o         1 MOL     -0.566164
    157 H67        -4.4550   -1.3050   -0.0880 hn        1 MOL      0.103412
    158 H68        -3.9140   -3.3460    1.9840 h1        1 MOL      0.132358
    159 H69        -2.2340   -1.8320    2.6770 hc        1 MOL      0.033221
    160 H70        -2.8630   -0.5990    1.6140 hc        1 MOL      0.033221
    161 H71        -2.1890   -1.9670   -0.3570 hc        1 MOL      0.063904
    162 H72        -1.5990   -3.3120    0.6440 hc        1 MOL      0.063904
    163 N14        -5.5460   -0.5130    2.4250 n         1 MOL      0.051925
    164 C55        -6.4520    0.2670    3.2460 c3        1 MOL     -0.322053
    165 H73        -5.9460    0.5600    4.1660 h1        1 MOL      0.104086
    166 H74        -6.7580    1.1600    2.7010 h1        1 MOL      0.104086
    167 H75        -7.3300   -0.3320    3.4880 h1        1 MOL      0.104086
    168 H76        -5.5570   -0.4040    1.4230 hn        1 MOL     -0.058434
    169 Ca1         2.0060    0.1580   -0.2210 Ca        1 MOL      1.602296
    170 O24         1.8700   -0.2100    2.7300 oh        1 MOL     -0.723518
    171 H77         0.9220   -0.2580    2.6740 ho        1 MOL      0.360301
    172 H78         2.0720   -0.3590    3.6560 ho        1 MOL      0.360301
    173 O25         4.5000    0.9000    1.1400 oh        1 MOL     -0.723518
    174 H79         4.8660    0.0490    1.3580 ho        1 MOL      0.360301
    175 H80         4.1090    1.2130    1.9530 ho        1 MOL      0.360301
@<TRIPOS>BOND
     1    1    2 1   
     2    1    4 1   
     3    1    5 1   
     4    1    6 1   
     5    2    3 2   
     6    2    7 1   
     7    7    8 1   
     8    7   15 1   
     9    8    9 1   
    10    8   11 1   
    11    8   16 1   
    12    9   10 2   
    13    9   19 1   
    14   11   12 1   
    15   11   17 1   
    16   11   18 1   
    17   12   13 1   
    18   12   14 1   
    19   19   20 1   
    20   19   24 1   
    21   20   21 1   
    22   20   23 1   
    23   20   25 1   
    24   21   22 2   
    25   21   29 1   
    26   23   26 1   
    27   23   27 1   
    28   23   28 1   
    29   29   30 1   
    30   29   37 1   
    31   30   31 1   
    32   30   33 1   
    33   30   38 1   
    34   31   32 2   
    35   31   41 1   
    36   33   34 1   
    37   33   39 1   
    38   33   40 1   
    39   34   35 1   
    40   34   36 1   
    41   41   42 1   
    42   41   45 1   
    43   42   43 1   
    44   42   46 1   
    45   42   47 1   
    46   43   44 2   
    47   43   48 1   
    48   48   49 1   
    49   48   56 1   
    50   49   50 1   
    51   49   52 1   
    52   49   57 1   
    53   50   51 2   
    54   50   62 1   
    55   52   53 1   
    56   52   58 1   
    57   52   59 1   
    58   53   54 1   
    59   53   55 2   
    60   54   60 1   
    61   54   61 1   
    62   62   63 1   
    63   62   66 1   
    64   63   64 1   
    65   63   67 1   
    66   63   68 1   
    67   64   65 2   
    68   64   69 1   
    69   69   70 1   
    70   69   76 1   
    71   70   71 1   
    72   70   73 1   
    73   70   77 1   
    74   71   72 2   
    75   71   83 1   
    76   73   74 1   
    77   73   75 1   
    78   73   78 1   
    79   74   80 1   
    80   74   81 1   
    81   74   82 1   
    82   75   79 1   
    83   83   84 1   
    84   83   91 1   
    85   84   85 1   
    86   84   87 1   
    87   84   92 1   
    88   85   86 2   
    89   85  102 1   
    90   87   88 1   
    91   87   89 1   
    92   87   93 1   
    93   88   90 1   
    94   88   94 1   
    95   88   95 1   
    96   89   96 1   
    97   89   97 1   
    98   89   98 1   
    99   90   99 1   
   100   90  100 1   
   101   90  101 1   
   102  102  103 1   
   103  102  110 1   
   104  103  104 1   
   105  103  106 1   
   106  103  111 1   
   107  104  105 2   
   108  104  114 1   
   109  106  107 1   
   110  106  112 1   
   111  106  113 1   
   112  107  108 1   
   113  107  109 1   
   114  114  115 1   
   115  114  125 1   
   116  115  116 1   
   117  115  118 1   
   118  115  126 1   
   119  116  117 2   
   120  116  134 1   
   121  118  119 1   
   122  118  127 1   
   123  118  128 1   
   124  119  120 ar  
   125  119  121 ar  
   126  120  122 ar  
   127  120  129 1   
   128  121  123 ar  
   129  121  130 1   
   130  122  124 ar  
   131  122  131 1   
   132  123  124 ar  
   133  123  132 1   
   134  124  133 1   
   135  134  135 1   
   136  134  140 1   
   137  135  136 1   
   138  135  138 1   
   139  135  141 1   
   140  136  137 2   
   141  136  148 1   
   142  138  139 1   
   143  138  142 1   
   144  138  143 1   
   145  139  140 1   
   146  139  144 1   
   147  139  145 1   
   148  140  146 1   
   149  140  147 1   
   150  148  149 1   
   151  148  157 1   
   152  149  150 1   
   153  149  152 1   
   154  149  158 1   
   155  150  151 2   
   156  150  163 1   
   157  152  153 1   
   158  152  159 1   
   159  152  160 1   
   160  153  154 1   
   161  153  161 1   
   162  153  162 1   
   163  154  155 1   
   164  154  156 1   
   165  163  164 1   
   166  163  168 1   
   167  164  165 1   
   168  164  166 1   
   169  164  167 1   
   170  170  171 1   
   171  170  172 1   
   172  173  174 1   
   173  173  175 1   
@<TRIPOS>SUBSTRUCTURE
     1 MOL         1 TEMP              0 ****  ****    0 ROOT
