@<TRIPOS>MOLECULE
MOL
  189   185     1     0     0
SMALL
resp


@<TRIPOS>ATOM
      1 C1         -1.0370   -1.8450    5.8200 c3        1 MOL     -0.521613
      2 C2         -0.0160   -1.8240    4.6590 c         1 MOL      0.627096
      3 O1          0.3520   -0.7950    4.2230 o         1 MOL     -0.511552
      4 H1         -1.7040   -2.6980    5.7010 hc        1 MOL      0.137911
      5 H2         -0.5080   -1.9270    6.7690 hc        1 MOL      0.137911
      6 H3         -1.6210   -0.9240    5.8080 hc        1 MOL      0.137911
      7 N1          0.6310   -2.9240    4.3130 n         1 MOL     -0.539982
      8 C3          1.5570   -3.0160    3.1580 c3        1 MOL      0.160172
      9 C4          1.4420   -4.3840    2.5330 c         1 MOL      0.454067
     10 O2          1.3190   -5.3740    3.2490 o         1 MOL     -0.579336
     11 C5          2.9980   -2.8550    3.7170 c3        1 MOL     -0.283094
     12 C6          4.0640   -2.5740    2.6290 c         1 MOL      0.752620
     13 O3          5.2760   -2.5000    2.9790 o         1 MOL     -0.699735
     14 O4          3.6930   -2.3160    1.4830 o         1 MOL     -0.699735
     15 H4          0.2620   -3.7570    4.7400 hn        1 MOL      0.291040
     16 H5          1.2820   -2.1880    2.5020 h1        1 MOL      0.145008
     17 H6          3.2590   -3.6990    4.3540 hc        1 MOL      0.068192
     18 H7          2.8880   -2.0190    4.4080 hc        1 MOL      0.068192
     19 N2          1.3820   -4.3800    1.2180 n         1 MOL     -0.042095
     20 C7          1.5000   -5.5970    0.3530 c3        1 MOL     -0.147800
     21 C8          2.5820   -5.4650   -0.7150 c         1 MOL      0.472431
     22 O5          2.8240   -6.4910   -1.3350 o         1 MOL     -0.577336
     23 C9          0.1130   -5.9290   -0.2240 c3        1 MOL      0.212572
     24 C10        -0.2090   -5.0820   -1.4450 c3        1 MOL     -0.136023
     25 C11        -1.0110   -5.9430    0.7710 c3        1 MOL     -0.286481
     26 C12        -1.6150   -5.1550   -2.1780 c3        1 MOL     -0.232609
     27 H8          1.3570   -3.4780    0.7770 hn        1 MOL     -0.092009
     28 H9          1.8500   -6.4250    0.9560 h1        1 MOL      0.125695
     29 H10         0.1970   -6.9710   -0.5190 hc        1 MOL     -0.027363
     30 H11         0.5670   -5.0290   -2.2180 hc        1 MOL      0.070386
     31 H12        -0.1110   -4.0760   -1.0360 hc        1 MOL      0.070386
     32 H13        -1.3020   -4.9290    1.0670 hc        1 MOL      0.066508
     33 H14        -1.9140   -6.3700    0.3250 hc        1 MOL      0.066508
     34 H15        -0.6370   -6.4820    1.6480 hc        1 MOL      0.066508
     35 H16        -1.5310   -6.0910   -2.7330 hc        1 MOL      0.081451
     36 H17        -2.4890   -5.2490   -1.5440 hc        1 MOL      0.081451
     37 H18        -1.8020   -4.3300   -2.8720 hc        1 MOL      0.081451
     38 N3          3.2630   -4.3330   -1.0270 n         1 MOL     -0.360609
     39 C13         4.3700   -4.3040   -2.0850 c3        1 MOL      0.181907
     40 C14         5.6640   -3.7270   -1.6010 c         1 MOL      0.332082
     41 O6          6.7340   -3.8530   -2.1730 o         1 MOL     -0.567432
     42 C15         3.7930   -3.5320   -3.3260 c3        1 MOL     -0.406856
     43 C16         3.1300   -2.2100   -2.9700 c         1 MOL      0.853295
     44 O7          3.3720   -1.7170   -1.8410 o         1 MOL     -0.696541
     45 O8          2.3300   -1.7070   -3.7480 o         1 MOL     -0.696541
     46 H19         3.0450   -3.4510   -0.5940 hn        1 MOL      0.291160
     47 H20         4.6210   -5.3110   -2.4110 h1        1 MOL      0.079003
     48 H21         2.9670   -4.1730   -3.6300 hc        1 MOL      0.099015
     49 H22         4.5830   -3.3840   -4.0630 hc        1 MOL      0.099015
     50 N4          5.6320   -2.9780   -0.5090 n         1 MOL     -0.091266
     51 C17         6.7940   -2.3170    0.0700 c3        1 MOL     -0.139321
     52 C18         7.1530   -1.0290   -0.6670 c         1 MOL      0.457510
     53 O9          8.2850   -0.6150   -0.4680 o         1 MOL     -0.601778
     54 H23         4.7210   -2.8510   -0.0920 hn        1 MOL      0.027314
     55 H24         7.5870   -3.0390   -0.0910 h1        1 MOL      0.102987
     56 H25         6.8390   -2.1790    1.1460 h1        1 MOL      0.102987
     57 N5          6.2490   -0.4180   -1.4220 n         1 MOL     -0.122918
     58 C19         6.6210    0.6520   -2.4360 c3        1 MOL     -0.008874
     59 C20         7.0800    2.0300   -1.7770 c         1 MOL      0.437079
     60 O10         7.8810    2.8000   -2.3160 o         1 MOL     -0.562241
     61 C21         5.4070    0.9270   -3.3710 c3        1 MOL     -0.194865
     62 C22         4.1840    1.5830   -2.7340 c         1 MOL      0.708985
     63 O11         4.0060    1.4850   -1.4990 o         1 MOL     -0.695665
     64 O12         3.3540    2.1090   -3.4800 o         1 MOL     -0.695665
     65 H26         5.3920   -0.9140   -1.6400 hn        1 MOL      0.170989
     66 H27         7.4210    0.3010   -3.0900 h1        1 MOL      0.068638
     67 H28         5.0090    0.0120   -3.8050 hc        1 MOL      0.048968
     68 H29         5.7690    1.5570   -4.1900 hc        1 MOL      0.048968
     69 N6          6.6590    2.2310   -0.4890 n         1 MOL     -0.143592
     70 C23         7.0500    3.3540    0.4580 c3        1 MOL     -0.267036
     71 C24         5.8890    4.1860    1.0800 c         1 MOL      0.480958
     72 O13         6.0370    4.8790    2.0920 o         1 MOL     -0.569048
     73 H30         5.9660    1.5990   -0.1230 hn        1 MOL      0.186666
     74 H31         7.8140    4.0430    0.1090 h1        1 MOL      0.133257
     75 H32         7.6080    2.8160    1.2250 h1        1 MOL      0.133257
     76 N7          4.6450    4.0500    0.5400 n         1 MOL     -0.193605
     77 C25         3.3920    4.6400    0.9580 c3        1 MOL      0.063971
     78 C26         2.2630    3.5990    1.1050 c         1 MOL      0.591431
     79 O14         2.3170    2.5080    0.5150 o         1 MOL     -0.593825
     80 C27         2.8970    5.7320   -0.0120 c3        1 MOL     -0.019692
     81 C28         3.9140    6.8270   -0.1700 c3        1 MOL     -0.307767
     82 C29         3.5320    7.8600   -1.2540 c         1 MOL      0.649568
     83 N8          3.6380    7.5870   -2.5220 n         1 MOL     -0.765920
     84 O15         3.0770    8.9790   -0.9120 o         1 MOL     -0.597240
     85 H33         4.5860    3.3720   -0.2090 hn        1 MOL      0.145585
     86 H34         3.3570    5.0700    1.9670 h1        1 MOL      0.017037
     87 H35         1.9180    6.1160    0.2520 hc        1 MOL      0.069616
     88 H36         2.8610    5.3110   -1.0100 hc        1 MOL      0.069616
     89 H37         4.9280    6.4470   -0.3150 hc        1 MOL      0.090712
     90 H38         4.0660    7.2800    0.8140 hc        1 MOL      0.090712
     91 H39         3.9970    6.6990   -2.8360 hn        1 MOL      0.365358
     92 H40         3.4050    8.2890   -3.2160 hn        1 MOL      0.365358
     93 N9          1.1860    3.9630    1.7640 n         1 MOL     -0.578547
     94 C30         0.0890    3.0520    2.0200 c3        1 MOL     -0.042380
     95 C31        -0.9190    3.3180    0.8730 c         1 MOL      0.496660
     96 O16        -1.2890    4.4710    0.7140 o         1 MOL     -0.604560
     97 C32        -0.5450    3.4420    3.3900 c3        1 MOL      0.108041
     98 C33        -1.7780    2.5700    3.6660 c3        1 MOL     -0.091669
     99 C34         0.5700    3.3010    4.4700 c3        1 MOL     -0.091669
    100 H41         1.1200    4.8900    2.1660 hn        1 MOL      0.339130
    101 H42         0.3140    1.9880    2.0570 h1        1 MOL      0.200791
    102 H43        -0.8680    4.4820    3.4210 hc        1 MOL      0.018211
    103 H44        -2.6390    2.6770    3.0180 hc        1 MOL      0.006591
    104 H45        -1.4670    1.5330    3.8100 hc        1 MOL      0.006591
    105 H46        -2.1960    2.8500    4.6300 hc        1 MOL      0.006591
    106 H47         0.9810    2.3000    4.3960 hc        1 MOL      0.006591
    107 H48         1.2520    4.1470    4.3510 hc        1 MOL      0.006591
    108 H49         0.1670    3.4930    5.4670 hc        1 MOL      0.006591
    109 N10        -1.4180    2.3100    0.2100 n         1 MOL      0.025298
    110 C35        -2.4000    2.3870   -0.8670 c3        1 MOL      0.016317
    111 C36        -3.7940    2.2470   -0.3240 c         1 MOL      0.304382
    112 O17        -3.9970    1.8060    0.8430 o         1 MOL     -0.374061
    113 C37        -2.0070    1.3750   -1.9450 c3        1 MOL     -0.170647
    114 C38        -2.6560    1.5960   -3.2850 c         1 MOL      0.728281
    115 N11        -2.2760    0.7350   -4.2080 n         1 MOL     -0.864094
    116 O18        -3.3210    2.6110   -3.6470 o         1 MOL     -0.592451
    117 H50        -1.0930    1.3950    0.5030 hn        1 MOL     -0.112256
    118 H51        -2.2440    3.3560   -1.3460 h1        1 MOL      0.064675
    119 H52        -2.2210    0.3770   -1.5700 hc        1 MOL      0.096592
    120 H53        -0.9280    1.4450   -2.1410 hc        1 MOL      0.096592
    121 H54        -1.7870   -0.0850   -3.8900 hn        1 MOL      0.408824
    122 H55        -2.2260    0.9250   -5.2010 hn        1 MOL      0.408824
    123 N12        -4.8270    2.4200   -1.1300 n         1 MOL     -0.326397
    124 C39        -6.2330    2.2140   -0.6600 c3        1 MOL      0.107551
    125 C40        -6.4360    0.7690   -0.3000 c         1 MOL      0.700972
    126 O19        -6.8040    0.4400    0.8350 o         1 MOL     -0.628582
    127 C41        -7.2940    2.5950   -1.8150 c3        1 MOL      0.014024
    128 C42        -8.7250    2.3590   -1.3970 ca        1 MOL     -0.082870
    129 C43        -9.2040    3.0930   -0.3050 ca        1 MOL     -0.130150
    130 C44        -9.4000    1.3150   -1.9790 ca        1 MOL     -0.130150
    131 C45       -10.5260    2.7870    0.1500 ca        1 MOL     -0.230413
    132 C46       -10.7260    1.1790   -1.6040 ca        1 MOL     -0.230413
    133 C47       -11.2790    1.8210   -0.5080 ca        1 MOL      0.340324
    134 O20       -12.5080    1.5070   -0.0690 oh        1 MOL     -0.516740
    135 H56        -4.7480    2.7080   -2.1000 hn        1 MOL      0.191656
    136 H57        -6.3670    2.8580    0.2130 h1        1 MOL      0.030596
    137 H58        -7.0550    1.9540   -2.6590 hc        1 MOL      0.013207
    138 H59        -7.1650    3.6480   -2.0610 hc        1 MOL      0.013207
    139 H60        -8.5870    3.8190    0.1910 ha        1 MOL      0.139251
    140 H61        -8.9160    0.7510   -2.7660 ha        1 MOL      0.139251
    141 H62       -10.8880    3.4300    0.9420 ha        1 MOL      0.121186
    142 H63       -11.3050    0.4400   -2.1360 ha        1 MOL      0.121186
    143 H64       -12.9910    0.8810   -0.6070 ho        1 MOL      0.372492
    144 N13        -6.0820   -0.1340   -1.1690 n         1 MOL     -0.274884
    145 C48        -6.2020   -1.5350   -0.8730 c3        1 MOL     -0.381238
    146 C49        -5.3880   -2.1200    0.2940 c         1 MOL      0.655876
    147 O21        -5.5420   -3.2600    0.6640 o         1 MOL     -0.542446
    148 C50        -6.2050   -2.3940   -2.1210 c3        1 MOL     -0.011059
    149 C51        -4.8310   -2.5650   -2.5940 c3        1 MOL     -0.163168
    150 C52        -4.8310   -3.2840   -3.9200 c         1 MOL      0.706550
    151 O22        -4.8920   -2.6180   -4.9790 o         1 MOL     -0.741900
    152 O23        -4.9890   -4.5140   -3.9460 o         1 MOL     -0.741900
    153 H65        -5.7730    0.2910   -2.0270 hn        1 MOL      0.271228
    154 H66        -7.1970   -1.7660   -0.5020 h1        1 MOL      0.124184
    155 H67        -6.8580   -2.0890   -2.9370 hc        1 MOL      0.069938
    156 H68        -6.6030   -3.3770   -1.8510 hc        1 MOL      0.069938
    157 H69        -4.2560   -3.1360   -1.8620 hc        1 MOL     -0.015283
    158 H70        -4.4310   -1.5510   -2.6690 hc        1 MOL     -0.015283
    159 N14        -4.5490   -1.2580    0.9070 n         1 MOL     -0.320245
    160 C53        -3.7220   -1.6550    1.9550 c3        1 MOL     -0.062526
    161 C54        -4.1830   -1.0840    3.3330 c         1 MOL      0.413582
    162 O24        -3.9280   -1.6980    4.3800 o         1 MOL     -0.558067
    163 C55        -2.2940   -1.0550    1.6060 c3        1 MOL      0.034055
    164 C56        -1.6640   -1.7010    0.4280 c3        1 MOL     -0.295377
    165 C57        -0.2490   -1.1590    0.2540 c         1 MOL      0.587551
    166 O25         0.7100   -1.8470   -0.2640 o         1 MOL     -0.633298
    167 O26         0.0970   -0.0830    0.7980 o         1 MOL     -0.633298
    168 H71        -4.4810   -0.3080    0.5700 hn        1 MOL      0.173789
    169 H72        -3.7150   -2.7400    2.0590 h1        1 MOL      0.099341
    170 H73        -1.7930   -1.1040    2.5740 hc        1 MOL      0.055080
    171 H74        -2.4080    0.0050    1.3880 hc        1 MOL      0.055080
    172 H75        -2.2590   -1.5140   -0.4670 hc        1 MOL      0.141910
    173 H76        -1.6040   -2.7710    0.5970 hc        1 MOL      0.141910
    174 N15        -4.7610    0.1100    3.3270 n         1 MOL     -0.053761
    175 C58        -5.2630    0.9060    4.4660 c3        1 MOL     -0.091517
    176 H77        -5.7460    0.2450    5.1860 h1        1 MOL      0.052802
    177 H78        -4.4300    1.4190    4.9470 h1        1 MOL      0.052802
    178 H79        -5.9840    1.6400    4.1080 h1        1 MOL      0.052802
    179 H80        -4.7460    0.6040    2.4470 hn        1 MOL      0.079117
    180 Ca1         2.6690   -0.1290    0.1550 Ca        1 MOL      1.748760
    181 O27         2.4990    0.4660    2.9360 oh        1 MOL     -0.926555
    182 H81         2.8210    1.1830    3.4880 ho        1 MOL      0.434365
    183 H82         1.8680   -0.0010    3.4870 ho        1 MOL      0.434365
    184 O28         5.0230    0.3720    1.5120 oh        1 MOL     -0.926555
    185 H83         5.3760   -0.4520    1.8560 ho        1 MOL      0.434365
    186 H84         5.0450    0.9680    2.2630 ho        1 MOL      0.434365
    187 O29         1.4920    0.4500   -2.3580 oh        1 MOL     -0.926555
    188 H85         1.7520   -0.3800   -2.7470 ho        1 MOL      0.434365
    189 H86         2.1060    1.0900   -2.7070 ho        1 MOL      0.434365
@<TRIPOS>BOND
     1    1    2 1   
     2    1    4 1   
     3    1    5 1   
     4    1    6 1   
     5    2    3 2   
     6    2    7 1   
     7    7    8 1   
     8    7   15 1   
     9    8    9 1   
    10    8   11 1   
    11    8   16 1   
    12    9   10 2   
    13    9   19 1   
    14   11   12 1   
    15   11   17 1   
    16   11   18 1   
    17   12   13 1   
    18   12   14 1   
    19   19   20 1   
    20   19   27 1   
    21   20   21 1   
    22   20   23 1   
    23   20   28 1   
    24   21   22 2   
    25   21   38 1   
    26   23   24 1   
    27   23   25 1   
    28   23   29 1   
    29   24   26 1   
    30   24   30 1   
    31   24   31 1   
    32   25   32 1   
    33   25   33 1   
    34   25   34 1   
    35   26   35 1   
    36   26   36 1   
    37   26   37 1   
    38   38   39 1   
    39   38   46 1   
    40   39   40 1   
    41   39   42 1   
    42   39   47 1   
    43   40   41 2   
    44   40   50 1   
    45   42   43 1   
    46   42   48 1   
    47   42   49 1   
    48   43   44 1   
    49   43   45 1   
    50   50   51 1   
    51   50   54 1   
    52   51   52 1   
    53   51   55 1   
    54   51   56 1   
    55   52   53 2   
    56   52   57 1   
    57   57   58 1   
    58   57   65 1   
    59   58   59 1   
    60   58   61 1   
    61   58   66 1   
    62   59   60 2   
    63   59   69 1   
    64   61   62 1   
    65   61   67 1   
    66   61   68 1   
    67   62   63 1   
    68   62   64 1   
    69   69   70 1   
    70   69   73 1   
    71   70   71 1   
    72   70   74 1   
    73   70   75 1   
    74   71   72 2   
    75   71   76 1   
    76   76   77 1   
    77   76   85 1   
    78   77   78 1   
    79   77   80 1   
    80   77   86 1   
    81   78   79 2   
    82   78   93 1   
    83   80   81 1   
    84   80   87 1   
    85   80   88 1   
    86   81   82 1   
    87   81   89 1   
    88   81   90 1   
    89   82   83 1   
    90   82   84 2   
    91   83   91 1   
    92   83   92 1   
    93   93   94 1   
    94   93  100 1   
    95   94   95 1   
    96   94   97 1   
    97   94  101 1   
    98   95   96 2   
    99   95  109 1   
   100   97   98 1   
   101   97   99 1   
   102   97  102 1   
   103   98  103 1   
   104   98  104 1   
   105   98  105 1   
   106   99  106 1   
   107   99  107 1   
   108   99  108 1   
   109  109  110 1   
   110  109  117 1   
   111  110  111 1   
   112  110  113 1   
   113  110  118 1   
   114  111  112 2   
   115  111  123 1   
   116  113  114 1   
   117  113  119 1   
   118  113  120 1   
   119  114  115 1   
   120  114  116 2   
   121  115  121 1   
   122  115  122 1   
   123  123  124 1   
   124  123  135 1   
   125  124  125 1   
   126  124  127 1   
   127  124  136 1   
   128  125  126 2   
   129  125  144 1   
   130  127  128 1   
   131  127  137 1   
   132  127  138 1   
   133  128  129 ar  
   134  128  130 ar  
   135  129  131 ar  
   136  129  139 1   
   137  130  132 ar  
   138  130  140 1   
   139  131  133 ar  
   140  131  141 1   
   141  132  133 ar  
   142  132  142 1   
   143  133  134 1   
   144  134  143 1   
   145  144  145 1   
   146  144  153 1   
   147  145  146 1   
   148  145  148 1   
   149  145  154 1   
   150  146  147 2   
   151  146  159 1   
   152  148  149 1   
   153  148  155 1   
   154  148  156 1   
   155  149  150 1   
   156  149  157 1   
   157  149  158 1   
   158  150  151 1   
   159  150  152 1   
   160  159  160 1   
   161  159  168 1   
   162  160  161 1   
   163  160  163 1   
   164  160  169 1   
   165  161  162 2   
   166  161  174 1   
   167  163  164 1   
   168  163  170 1   
   169  163  171 1   
   170  164  165 1   
   171  164  172 1   
   172  164  173 1   
   173  165  166 1   
   174  165  167 1   
   175  174  175 1   
   176  174  179 1   
   177  175  176 1   
   178  175  177 1   
   179  175  178 1   
   180  181  182 1   
   181  181  183 1   
   182  184  185 1   
   183  184  186 1   
   184  187  188 1   
   185  187  189 1   
@<TRIPOS>SUBSTRUCTURE
     1 MOL         1 TEMP              0 ****  ****    0 ROOT
