@<TRIPOS>MOLECULE
MOL
  175   173     1     0     0
SMALL
resp


@<TRIPOS>ATOM
      1 C1         -0.0720    4.1340    5.4400 c3        1 MOL     -0.371546
      2 C2         -0.4680    4.1990    3.9850 c         1 MOL      0.732235
      3 O1          0.3700    4.3060    3.0710 o         1 MOL     -0.574141
      4 H1         -0.6850    3.3900    5.9500 hc        1 MOL      0.086252
      5 H2          0.9790    3.8550    5.5190 hc        1 MOL      0.086252
      6 H3         -0.2260    5.1090    5.9020 hc        1 MOL      0.086252
      7 N1         -1.7540    4.1420    3.7890 n         1 MOL     -0.634878
      8 C3         -2.4410    3.7490    2.5240 c3        1 MOL      0.167796
      9 C4         -2.6430    4.8990    1.5350 c         1 MOL      0.696159
     10 O2         -3.0230    5.9550    1.9290 o         1 MOL     -0.580182
     11 C5         -3.7920    3.1110    2.8970 c3        1 MOL     -0.476014
     12 C6         -4.5650    2.5160    1.6980 c         1 MOL      0.773956
     13 O3         -3.9740    2.0310    0.6690 o         1 MOL     -0.679954
     14 O4         -5.8380    2.3260    1.8190 o         1 MOL     -0.679954
     15 H4         -2.3160    4.1460    4.6310 hn        1 MOL      0.331840
     16 H5         -1.9050    2.9360    2.0320 h1        1 MOL      0.103225
     17 H6         -4.4680    3.8520    3.3140 hc        1 MOL      0.099985
     18 H7         -3.6820    2.2570    3.5610 hc        1 MOL      0.099985
     19 N2         -2.3810    4.5490    0.2920 n         1 MOL     -0.739718
     20 C7         -2.7560    5.4620   -0.7620 c3        1 MOL      0.426736
     21 C8         -3.4600    4.8560   -2.0030 c         1 MOL      0.395318
     22 O5         -3.5140    5.5810   -3.0480 o         1 MOL     -0.563508
     23 C9         -1.4880    6.2120   -1.2250 c3        1 MOL     -0.210154
     24 H8         -2.0460    3.6050    0.1760 hn        1 MOL      0.376233
     25 H9         -3.4160    6.2300   -0.3420 h1        1 MOL     -0.020198
     26 H10        -0.8260    5.4560   -1.6530 hc        1 MOL      0.042632
     27 H11        -1.7430    7.0140   -1.9280 hc        1 MOL      0.042632
     28 H12        -0.9410    6.7220   -0.4300 hc        1 MOL      0.042632
     29 N3         -3.9820    3.6240   -1.9140 n         1 MOL     -0.426644
     30 C10        -4.6880    2.9750   -3.0230 c3        1 MOL      0.228429
     31 C11        -6.0050    2.2220   -2.6140 c         1 MOL      0.306651
     32 O6         -6.7650    1.9420   -3.5590 o         1 MOL     -0.560803
     33 C12        -3.6180    2.0450   -3.7650 c3        1 MOL     -0.209438
     34 C13        -3.0000    1.0670   -2.7520 c         1 MOL      0.703281
     35 O7         -3.7500    0.4340   -1.9480 o         1 MOL     -0.714959
     36 O8         -1.7270    1.0060   -2.5960 o         1 MOL     -0.714959
     37 H13        -3.7430    3.0570   -1.1200 hn        1 MOL      0.288454
     38 H14        -4.9110    3.7650   -3.7320 h1        1 MOL      0.050566
     39 H15        -2.8290    2.6990   -4.1370 hc        1 MOL      0.053220
     40 H16        -4.1100    1.5830   -4.6260 hc        1 MOL      0.053220
     41 N4         -6.2930    1.9300   -1.3700 n         1 MOL     -0.098228
     42 C14        -7.4050    1.0480   -1.0830 c3        1 MOL     -0.235269
     43 C15        -7.3080   -0.4220   -1.4870 c         1 MOL      0.506029
     44 O9         -8.2870   -1.1300   -1.2900 o         1 MOL     -0.618057
     45 H17        -5.6440    2.2500   -0.6650 hn        1 MOL      0.078060
     46 H18        -8.3430    1.4760   -1.4540 h1        1 MOL      0.129725
     47 H19        -7.5730    1.1020   -0.0020 h1        1 MOL      0.129725
     48 N5         -6.2090   -0.9480   -2.0210 n         1 MOL     -0.256486
     49 C16        -6.1530   -2.3880   -2.3380 c3        1 MOL      0.012709
     50 C17        -6.0520   -3.4120   -1.1040 c         1 MOL      0.472988
     51 O10        -5.9280   -4.6040   -1.3350 o         1 MOL     -0.509803
     52 C18        -4.9160   -2.5000   -3.2000 c3        1 MOL     -0.176681
     53 C19        -3.5900   -2.4010   -2.5090 c         1 MOL      0.725417
     54 N6         -2.5090   -2.3710   -3.2160 n         1 MOL     -0.621135
     55 O11        -3.5160   -2.2260   -1.3040 o         1 MOL     -0.752344
     56 H20        -5.3930   -0.3600   -2.1620 hn        1 MOL      0.272435
     57 H21        -6.9820   -2.7190   -2.9550 h1        1 MOL      0.102054
     58 H22        -4.9130   -1.7280   -3.9630 hc        1 MOL      0.030425
     59 H23        -4.9320   -3.4920   -3.6590 hc        1 MOL      0.030425
     60 H24        -2.6040   -2.4380   -4.2130 hn        1 MOL      0.316861
     61 H25        -1.6730   -2.1420   -2.6960 hn        1 MOL      0.316861
     62 N7         -6.0940   -2.8530    0.1450 n         1 MOL     -0.270484
     63 C20        -5.9920   -3.6890    1.3530 c3        1 MOL     -0.329431
     64 C21        -4.6620   -4.4100    1.6870 c         1 MOL      0.457776
     65 O12        -4.6080   -5.3950    2.4360 o         1 MOL     -0.580022
     66 H26        -6.0000   -1.8480    0.2400 hn        1 MOL      0.283230
     67 H27        -6.6980   -4.5160    1.2470 h1        1 MOL      0.140818
     68 H28        -6.3690   -3.0490    2.1620 h1        1 MOL      0.140818
     69 N8         -3.6020   -4.0120    1.0570 n         1 MOL     -0.035601
     70 C22        -2.2270   -4.5220    1.3250 c3        1 MOL     -0.189926
     71 C23        -1.2790   -3.3660    1.7230 c         1 MOL      0.310279
     72 O13        -1.4970   -2.2630    1.2620 o         1 MOL     -0.405911
     73 C24        -1.6310   -5.3380    0.1700 c3        1 MOL      0.684656
     74 C25        -2.4900   -6.5620   -0.0910 c3        1 MOL     -0.684219
     75 O14        -1.5520   -4.4290   -0.9500 oh        1 MOL     -0.626232
     76 H29        -3.7200   -3.3060    0.3380 hn        1 MOL      0.228700
     77 H30        -2.1520   -5.2400    2.1340 h1        1 MOL      0.045970
     78 H31        -0.6060   -5.6680    0.3490 h1        1 MOL     -0.082447
     79 H32        -1.1700   -3.6340   -0.5860 ho        1 MOL      0.325013
     80 H33        -1.8740   -7.1650   -0.7570 hc        1 MOL      0.171206
     81 H34        -2.7440   -7.0630    0.8400 hc        1 MOL      0.171206
     82 H35        -3.3950   -6.2800   -0.6330 hc        1 MOL      0.171206
     83 N9         -0.2200   -3.6450    2.4790 n         1 MOL     -0.258001
     84 C26         0.9280   -2.7020    2.5580 c3        1 MOL     -0.077482
     85 C27         1.7930   -3.0140    1.3010 c         1 MOL      0.487144
     86 O15         2.1870   -4.1280    1.0950 o         1 MOL     -0.577310
     87 C28         1.7220   -2.7880    3.8860 c3        1 MOL      0.127995
     88 C29         0.9700   -2.1730    5.0650 c3        1 MOL     -0.048110
     89 C30         3.0110   -1.9600    3.8770 c3        1 MOL     -0.260239
     90 C31         1.2630   -2.8810    6.4500 c3        1 MOL     -0.094603
     91 H36        -0.0490   -4.6160    2.7320 hn        1 MOL      0.244282
     92 H37         0.7390   -1.6320    2.4180 h1        1 MOL      0.044723
     93 H38         1.8590   -3.8310    4.1650 hc        1 MOL      0.021052
     94 H39        -0.0770   -2.2550    4.7630 hc        1 MOL      0.006742
     95 H40         1.1840   -1.1020    5.1380 hc        1 MOL      0.006742
     96 H41         2.8060   -0.9360    3.5410 hc        1 MOL      0.059323
     97 H42         3.5440   -2.0470    4.8190 hc        1 MOL      0.059323
     98 H43         3.7000   -2.4270    3.1730 hc        1 MOL      0.059323
     99 H44         2.3390   -2.9160    6.6310 hc        1 MOL      0.023735
    100 H45         0.7950   -2.3510    7.2770 hc        1 MOL      0.023735
    101 H46         0.9320   -3.9130    6.3710 hc        1 MOL      0.023735
    102 N10         2.0720   -1.9750    0.5650 n         1 MOL     -0.219329
    103 C32         2.8070   -2.0130   -0.6880 c3        1 MOL      0.004924
    104 C33         4.2880   -1.5770   -0.5770 c         1 MOL      0.570542
    105 O16         4.6820   -0.9340    0.3730 o         1 MOL     -0.484573
    106 C34         2.0440   -1.2730   -1.8450 c3        1 MOL     -0.211831
    107 C35         0.6260   -1.7840   -2.1670 c         1 MOL      0.654869
    108 O17        -0.2760   -1.4610   -1.3230 o         1 MOL     -0.636587
    109 O18         0.4280   -2.3700   -3.2490 o         1 MOL     -0.636587
    110 H47         1.7090   -1.1020    0.9010 hn        1 MOL      0.269003
    111 H48         2.8810   -3.0620   -0.9600 h1        1 MOL      0.062071
    112 H49         2.6460   -1.3900   -2.7540 hc        1 MOL      0.052675
    113 H50         1.9570   -0.2060   -1.6730 hc        1 MOL      0.052675
    114 N11         5.1100   -1.8910   -1.6000 n         1 MOL     -0.653042
    115 C36         6.5600   -1.4950   -1.4450 c3        1 MOL      0.254219
    116 C37         6.7950    0.0290   -1.3020 c         1 MOL      0.294817
    117 O19         7.4670    0.3870   -0.3140 o         1 MOL     -0.467352
    118 C38         7.3900   -2.1400   -2.4860 c3        1 MOL     -0.061085
    119 C39         8.8550   -1.8030   -2.3080 ca        1 MOL     -0.030292
    120 C40         9.6340   -2.2980   -1.2630 ca        1 MOL     -0.096875
    121 C41         9.4100   -0.7580   -3.0160 ca        1 MOL     -0.096875
    122 C42        10.9110   -1.9530   -0.9740 ca        1 MOL     -0.099962
    123 C43        10.6880   -0.3290   -2.7460 ca        1 MOL     -0.099962
    124 C44        11.4340   -0.9170   -1.7390 ca        1 MOL     -0.132280
    125 H51         4.7990   -2.5620   -2.2910 hn        1 MOL      0.337550
    126 H52         6.8380   -2.0200   -0.5240 h1        1 MOL      0.082300
    127 H53         7.0640   -1.7430   -3.4470 hc        1 MOL      0.035959
    128 H54         7.1890   -3.2070   -2.5620 hc        1 MOL      0.035959
    129 H55         9.1440   -3.0330   -0.6390 ha        1 MOL      0.080435
    130 H56         8.8010   -0.2870   -3.7700 ha        1 MOL      0.080435
    131 H57        11.3770   -2.3400   -0.0790 ha        1 MOL      0.108419
    132 H58        11.0990    0.5080   -3.2950 ha        1 MOL      0.108419
    133 H59        12.3730   -0.4600   -1.4360 ha        1 MOL      0.103472
    134 N12         6.1500    0.9470   -2.0820 n         1 MOL      0.002409
    135 C45         6.2560    2.3710   -1.8340 c3        1 MOL      0.066077
    136 C46         5.6980    2.8550   -0.5000 c         1 MOL      0.380254
    137 O20         6.2630    3.8280    0.0330 o         1 MOL     -0.536247
    138 C47         5.6910    3.0330   -3.0500 c3        1 MOL     -0.172231
    139 C48         4.7600    2.0170   -3.6260 c3        1 MOL     -0.084248
    140 C49         5.2160    0.6700   -3.1570 c3        1 MOL      0.005562
    141 H60         7.3150    2.6240   -1.8620 h1        1 MOL      0.037178
    142 H61         5.2160    3.9360   -2.6700 hc        1 MOL      0.072522
    143 H62         6.4560    3.2330   -3.8020 hc        1 MOL      0.072522
    144 H63         3.7120    2.1740   -3.3640 hc        1 MOL      0.054662
    145 H64         4.9010    2.0070   -4.7050 hc        1 MOL      0.054662
    146 H65         4.3650    0.1130   -2.7710 h1        1 MOL      0.018072
    147 H66         5.7560    0.2430   -4.0060 h1        1 MOL      0.018072
    148 N13         4.7500    2.1970    0.1300 n         1 MOL     -0.176594
    149 C50         4.0960    2.4540    1.4830 c3        1 MOL     -0.189688
    150 C51         4.7500    1.8710    2.6610 c         1 MOL      0.506466
    151 O21         4.6210    2.3940    3.7790 o         1 MOL     -0.583240
    152 C52         2.5840    1.9890    1.5980 c3        1 MOL      0.186097
    153 C53         1.6510    2.3150    0.4290 c3        1 MOL     -0.130482
    154 C54         0.3230    1.6110    0.5190 c         1 MOL      0.516742
    155 O22         0.0980    0.5880    1.1840 o         1 MOL     -0.659747
    156 O23        -0.7840    2.0740    0.0150 o         1 MOL     -0.659747
    157 H67         4.4640    1.4080   -0.4360 hn        1 MOL      0.228105
    158 H68         4.1240    3.4920    1.7920 h1        1 MOL      0.119902
    159 H69         2.2180    2.3710    2.5570 hc        1 MOL     -0.006050
    160 H70         2.6660    0.9090    1.5860 hc        1 MOL     -0.006050
    161 H71         2.2040    2.2470   -0.5020 hc        1 MOL      0.057059
    162 H72         1.4530    3.3610    0.6470 hc        1 MOL      0.057059
    163 N14         5.4700    0.7980    2.4490 n         1 MOL     -0.046607
    164 C55         6.3770    0.2250    3.3930 c3        1 MOL     -0.203802
    165 H73         5.8610   -0.5370    3.9760 h1        1 MOL      0.078095
    166 H74         7.2140   -0.2300    2.8620 h1        1 MOL      0.078095
    167 H75         6.7480    1.0030    4.0600 h1        1 MOL      0.078095
    168 H76         5.5820    0.4670    1.4970 hn        1 MOL      0.067401
    169 Ca1        -2.1820   -0.1060   -0.0460 Ca        1 MOL      1.714183
    170 O24        -4.1170   -1.0490    1.5760 oh        1 MOL     -0.817011
    171 H77        -3.6380   -0.9850    2.4050 ho        1 MOL      0.396510
    172 H78        -5.0210   -0.8410    1.8050 ho        1 MOL      0.396510
    173 O25        -1.9070    0.5100    2.9290 oh        1 MOL     -0.817011
    174 H79        -1.8630    0.7290    3.8620 ho        1 MOL      0.396510
    175 H80        -1.0220    0.6600    2.6100 ho        1 MOL      0.396510
@<TRIPOS>BOND
     1    1    2 1   
     2    1    4 1   
     3    1    5 1   
     4    1    6 1   
     5    2    3 2   
     6    2    7 1   
     7    7    8 1   
     8    7   15 1   
     9    8    9 1   
    10    8   11 1   
    11    8   16 1   
    12    9   10 2   
    13    9   19 1   
    14   11   12 1   
    15   11   17 1   
    16   11   18 1   
    17   12   13 1   
    18   12   14 1   
    19   19   20 1   
    20   19   24 1   
    21   20   21 1   
    22   20   23 1   
    23   20   25 1   
    24   21   22 2   
    25   21   29 1   
    26   23   26 1   
    27   23   27 1   
    28   23   28 1   
    29   29   30 1   
    30   29   37 1   
    31   30   31 1   
    32   30   33 1   
    33   30   38 1   
    34   31   32 2   
    35   31   41 1   
    36   33   34 1   
    37   33   39 1   
    38   33   40 1   
    39   34   35 1   
    40   34   36 1   
    41   41   42 1   
    42   41   45 1   
    43   42   43 1   
    44   42   46 1   
    45   42   47 1   
    46   43   44 2   
    47   43   48 1   
    48   48   49 1   
    49   48   56 1   
    50   49   50 1   
    51   49   52 1   
    52   49   57 1   
    53   50   51 2   
    54   50   62 1   
    55   52   53 1   
    56   52   58 1   
    57   52   59 1   
    58   53   54 1   
    59   53   55 2   
    60   54   60 1   
    61   54   61 1   
    62   62   63 1   
    63   62   66 1   
    64   63   64 1   
    65   63   67 1   
    66   63   68 1   
    67   64   65 2   
    68   64   69 1   
    69   69   70 1   
    70   69   76 1   
    71   70   71 1   
    72   70   73 1   
    73   70   77 1   
    74   71   72 2   
    75   71   83 1   
    76   73   74 1   
    77   73   75 1   
    78   73   78 1   
    79   74   80 1   
    80   74   81 1   
    81   74   82 1   
    82   75   79 1   
    83   83   84 1   
    84   83   91 1   
    85   84   85 1   
    86   84   87 1   
    87   84   92 1   
    88   85   86 2   
    89   85  102 1   
    90   87   88 1   
    91   87   89 1   
    92   87   93 1   
    93   88   90 1   
    94   88   94 1   
    95   88   95 1   
    96   89   96 1   
    97   89   97 1   
    98   89   98 1   
    99   90   99 1   
   100   90  100 1   
   101   90  101 1   
   102  102  103 1   
   103  102  110 1   
   104  103  104 1   
   105  103  106 1   
   106  103  111 1   
   107  104  105 2   
   108  104  114 1   
   109  106  107 1   
   110  106  112 1   
   111  106  113 1   
   112  107  108 1   
   113  107  109 1   
   114  114  115 1   
   115  114  125 1   
   116  115  116 1   
   117  115  118 1   
   118  115  126 1   
   119  116  117 2   
   120  116  134 1   
   121  118  119 1   
   122  118  127 1   
   123  118  128 1   
   124  119  120 ar  
   125  119  121 ar  
   126  120  122 ar  
   127  120  129 1   
   128  121  123 ar  
   129  121  130 1   
   130  122  124 ar  
   131  122  131 1   
   132  123  124 ar  
   133  123  132 1   
   134  124  133 1   
   135  134  135 1   
   136  134  140 1   
   137  135  136 1   
   138  135  138 1   
   139  135  141 1   
   140  136  137 2   
   141  136  148 1   
   142  138  139 1   
   143  138  142 1   
   144  138  143 1   
   145  139  140 1   
   146  139  144 1   
   147  139  145 1   
   148  140  146 1   
   149  140  147 1   
   150  148  149 1   
   151  148  157 1   
   152  149  150 1   
   153  149  152 1   
   154  149  158 1   
   155  150  151 2   
   156  150  163 1   
   157  152  153 1   
   158  152  159 1   
   159  152  160 1   
   160  153  154 1   
   161  153  161 1   
   162  153  162 1   
   163  154  155 1   
   164  154  156 1   
   165  163  164 1   
   166  163  168 1   
   167  164  165 1   
   168  164  166 1   
   169  164  167 1   
   170  170  171 1   
   171  170  172 1   
   172  173  174 1   
   173  173  175 1   
@<TRIPOS>SUBSTRUCTURE
     1 MOL         1 TEMP              0 ****  ****    0 ROOT
