@<TRIPOS>MOLECULE
MOL
  179   176     1     0     0
SMALL
resp


@<TRIPOS>ATOM
      1 C1          1.2120    3.1900    6.3070 c3        1 MOL     -0.337670
      2 C2          1.0890    2.7830    4.8690 c         1 MOL      0.729748
      3 O1          2.0450    2.5540    4.1210 o         1 MOL     -0.583426
      4 H1          2.0390    2.6480    6.7680 hc        1 MOL      0.085158
      5 H2          1.4030    4.2610    6.3670 hc        1 MOL      0.085158
      6 H3          0.2870    2.9550    6.8330 hc        1 MOL      0.085158
      7 N1         -0.1980    2.7270    4.4170 n         1 MOL     -0.571713
      8 C3         -0.5190    2.4430    3.0380 c3        1 MOL     -0.110787
      9 C4         -0.5690    3.7160    2.1810 c         1 MOL      0.746270
     10 O2         -1.1380    4.7270    2.5740 o         1 MOL     -0.566388
     11 C5         -1.8300    1.7270    3.1070 c3        1 MOL     -0.020405
     12 C6         -2.4220    1.2420    1.8410 c         1 MOL      0.777749
     13 O3         -1.9940    1.6580    0.7360 o         1 MOL     -0.729063
     14 O4         -3.3330    0.4210    1.8730 o         1 MOL     -0.729063
     15 H4         -0.9180    2.9930    5.0650 hn        1 MOL      0.328646
     16 H5          0.1650    1.7090    2.6210 h1        1 MOL      0.029313
     17 H6         -2.5980    2.4510    3.4070 hc        1 MOL     -0.001135
     18 H7         -1.7670    0.8800    3.7870 hc        1 MOL     -0.001135
     19 N2          0.1460    3.6450    1.0420 n         1 MOL     -0.481700
     20 C7          0.1230    4.9550    0.2380 c3        1 MOL     -0.096738
     21 C8         -1.2360    5.2930   -0.4490 c         1 MOL      0.588457
     22 O5         -1.5440    6.4700   -0.6130 o         1 MOL     -0.557045
     23 C9          1.2170    4.9480   -0.8040 c3        1 MOL     -0.059880
     24 C10         1.5420    6.3460   -1.3080 c3        1 MOL      0.009468
     25 C11         2.6560    6.0290   -2.3290 c3        1 MOL     -0.125226
     26 C12         2.6640    7.2210   -3.2720 c3        1 MOL      0.262515
     27 N3          3.7730    7.1830   -4.2520 n4        1 MOL     -0.550505
     28 H8          0.6480    2.8060    0.7860 hn        1 MOL      0.296766
     29 H9          0.2340    5.7840    0.9420 h1        1 MOL      0.107390
     30 H10         0.9470    4.2250   -1.5720 hc        1 MOL      0.079462
     31 H11         2.1170    4.5030   -0.3550 hc        1 MOL      0.079462
     32 H12         1.8260    7.1080   -0.5800 hc        1 MOL      0.030382
     33 H13         0.6820    6.7730   -1.8300 hc        1 MOL      0.030382
     34 H14         2.4220    5.1590   -2.9330 hc        1 MOL      0.053799
     35 H15         3.5830    5.9840   -1.7680 hc        1 MOL      0.053799
     36 H16         2.6050    8.2020   -2.7980 hx        1 MOL      0.030160
     37 H17         1.7240    7.1520   -3.8190 hx        1 MOL      0.030160
     38 H18         4.6900    7.0360   -3.8570 hn        1 MOL      0.363600
     39 H19         3.6090    6.4930   -4.9690 hn        1 MOL      0.363600
     40 H20         3.8780    8.0750   -4.7290 hn        1 MOL      0.363600
     41 N4         -2.1010    4.2690   -0.7440 n         1 MOL     -0.490344
     42 C13        -3.2910    4.5240   -1.6040 c3        1 MOL      0.267206
     43 C14        -4.6280    4.1700   -0.7550 c         1 MOL      0.329750
     44 O6         -5.7080    4.6990   -1.0380 o         1 MOL     -0.517231
     45 C15        -3.2680    3.6560   -2.9010 c3        1 MOL     -0.450119
     46 C16        -2.8770    2.2270   -2.6350 c         1 MOL      0.931508
     47 O7         -1.6690    1.9170   -2.7310 o         1 MOL     -0.836247
     48 O8         -3.6730    1.4780   -2.0270 o         1 MOL     -0.836247
     49 H21        -1.8740    3.3220   -0.4850 hn        1 MOL      0.313929
     50 H22        -3.3260    5.5840   -1.8600 h1        1 MOL      0.064214
     51 H23        -2.5910    4.0610   -3.6560 hc        1 MOL      0.097141
     52 H24        -4.2650    3.6890   -3.3360 hc        1 MOL      0.097141
     53 N5         -4.5390    3.2730    0.2830 n         1 MOL     -0.074315
     54 C17        -5.6720    2.9790    1.2200 c3        1 MOL     -0.221509
     55 C18        -6.6570    1.8520    0.7180 c         1 MOL      0.528816
     56 O9         -7.7520    1.7800    1.3060 o         1 MOL     -0.570417
     57 H25        -3.6420    2.8280    0.4310 hn        1 MOL      0.071753
     58 H26        -6.2760    3.8700    1.4060 h1        1 MOL      0.118422
     59 H27        -5.3000    2.6400    2.1840 h1        1 MOL      0.118422
     60 N6         -6.3050    1.1580   -0.3290 n         1 MOL     -0.324936
     61 C19        -7.0830   -0.0350   -0.8540 c3        1 MOL     -0.014312
     62 C20        -7.1290   -1.1190    0.1870 c         1 MOL      0.392058
     63 O10        -7.8920   -2.0740    0.0810 o         1 MOL     -0.534436
     64 C21        -6.3270   -0.5350   -2.1480 c3        1 MOL     -0.326631
     65 C22        -5.1170   -1.3740   -1.8670 c         1 MOL      0.808717
     66 N7         -5.0350   -2.5020   -2.4850 n         1 MOL     -0.768325
     67 O11        -4.2240   -1.0020   -1.0480 o         1 MOL     -0.607284
     68 H28        -5.4090    1.3550   -0.7440 hn        1 MOL      0.291327
     69 H29        -8.0740    0.3240   -1.1320 h1        1 MOL      0.142535
     70 H30        -6.0420    0.3700   -2.6750 hc        1 MOL      0.107938
     71 H31        -7.0470   -1.0660   -2.7800 hc        1 MOL      0.107938
     72 H32        -5.7040   -2.6880   -3.2230 hn        1 MOL      0.356039
     73 H33        -4.3760   -3.2170   -2.2060 hn        1 MOL      0.356039
     74 N8         -6.3190   -1.0420    1.2690 n         1 MOL     -0.189739
     75 C23        -6.2550   -2.1260    2.2870 c3        1 MOL     -0.157190
     76 C24        -5.0960   -3.0980    2.3190 c         1 MOL      0.471471
     77 O12        -5.1770   -4.0860    3.0250 o         1 MOL     -0.563936
     78 H34        -5.6730   -0.2670    1.2640 hn        1 MOL      0.264265
     79 H35        -7.1480   -2.7490    2.1740 h1        1 MOL      0.112018
     80 H36        -6.4040   -1.5420    3.1950 h1        1 MOL      0.112018
     81 N9         -4.1130   -2.9540    1.4660 n         1 MOL     -0.068701
     82 C25        -2.8790   -3.7270    1.6470 c3        1 MOL      0.083131
     83 C26        -1.5500   -2.9130    1.2510 c         1 MOL      0.583157
     84 O13        -1.6450   -2.0210    0.4990 o         1 MOL     -0.570036
     85 C27        -2.9770   -5.0650    0.9690 c3        1 MOL     -0.279841
     86 C28        -2.9660   -5.2140   -0.5250 ca        1 MOL      0.186600
     87 C29        -1.7090   -5.4250   -1.1820 ca        1 MOL     -0.212796
     88 C30        -4.1450   -5.2450   -1.2820 ca        1 MOL     -0.212796
     89 C31        -1.6730   -5.5060   -2.6120 ca        1 MOL     -0.174746
     90 C32        -4.0690   -5.3650   -2.6760 ca        1 MOL     -0.174746
     91 C33        -2.8200   -5.4420   -3.3650 ca        1 MOL      0.217512
     92 O14        -2.7500   -5.4990   -4.7400 oh        1 MOL     -0.472582
     93 H37        -4.0880   -2.1790    0.8220 hn        1 MOL      0.046247
     94 H38        -2.8130   -3.9950    2.7070 h1        1 MOL      0.045973
     95 H39        -3.9190   -5.5000    1.2990 hc        1 MOL      0.097045
     96 H40        -2.2260   -5.7640    1.3290 hc        1 MOL      0.097045
     97 H41        -0.7700   -5.3760   -0.6610 ha        1 MOL      0.152441
     98 H42        -5.0650   -5.1710   -0.7260 ha        1 MOL      0.152441
     99 H43        -0.6900   -5.5730   -3.0590 ha        1 MOL      0.120564
    100 H44        -4.9450   -5.3850   -3.2980 ha        1 MOL      0.120564
    101 H45        -1.8380   -5.5750   -5.0320 ho        1 MOL      0.355123
    102 N10        -0.4800   -3.2450    1.9720 n         1 MOL     -0.578391
    103 C34         0.8190   -2.6270    1.6650 c3        1 MOL     -0.336533
    104 C35         1.7360   -3.5680    0.8450 c         1 MOL      0.434120
    105 O15         1.6200   -4.7820    0.8060 o         1 MOL     -0.497587
    106 C36         1.4480   -1.9600    2.8810 c3        1 MOL      0.100646
    107 C37         2.0450   -3.0090    3.8150 c3        1 MOL     -0.150458
    108 C38         0.3470   -1.0780    3.6060 c3        1 MOL      0.129260
    109 C39         2.7250   -2.4530    5.0770 c3        1 MOL     -0.072866
    110 H46        -0.5090   -4.0590    2.5780 hn        1 MOL      0.398426
    111 H47         0.7060   -1.7170    1.0810 h1        1 MOL      0.200841
    112 H48         2.2760   -1.3240    2.5610 hc        1 MOL     -0.039866
    113 H49         2.8920   -3.5700    3.4260 hc        1 MOL      0.072735
    114 H50         1.2510   -3.6960    4.1140 hc        1 MOL      0.072735
    115 H51        -0.5420   -1.6300    3.8900 hc        1 MOL      0.006245
    116 H52         0.6700   -0.6850    4.5710 hc        1 MOL      0.006245
    117 H53         0.1140   -0.2910    2.8900 hc        1 MOL      0.006245
    118 H54         2.0440   -1.8410    5.6600 hc        1 MOL      0.023684
    119 H55         3.0440   -3.2580    5.7280 hc        1 MOL      0.023684
    120 H56         3.6360   -1.9000    4.8360 hc        1 MOL      0.023684
    121 N11         2.7200   -2.9900    0.1480 n         1 MOL     -0.065521
    122 C40         3.8650   -3.4670   -0.6790 c3        1 MOL     -0.237272
    123 C41         5.2380   -2.9720   -0.1310 c         1 MOL      0.611417
    124 O16         5.2660   -2.1020    0.7270 o         1 MOL     -0.463397
    125 C42         3.7220   -2.9640   -2.1680 c3        1 MOL      0.089142
    126 O17         3.7740   -1.5650   -2.2720 oh        1 MOL     -0.565088
    127 H57         2.5340   -2.0090   -0.0130 hn        1 MOL      0.178679
    128 H58         3.6480   -4.5320   -0.7210 h1        1 MOL      0.096641
    129 H59         2.7590   -3.2230   -2.6120 h1        1 MOL      0.037823
    130 H60         4.5230   -3.3820   -2.7710 h1        1 MOL      0.037823
    131 H61         2.8860   -1.1860   -2.2680 ho        1 MOL      0.407654
    132 N12         6.3550   -3.5720   -0.6070 n         1 MOL     -0.486185
    133 C43         7.7560   -3.3800   -0.0740 c3        1 MOL      0.083307
    134 C44         8.1400   -1.9160   -0.4270 c         1 MOL      0.548699
    135 O18         8.5820   -1.1610    0.3960 o         1 MOL     -0.545140
    136 C45         8.7440   -4.3750   -0.7410 c3        1 MOL     -0.219725
    137 H62         6.2870   -4.2330   -1.3730 hn        1 MOL      0.295688
    138 H63         7.8520   -3.4010    1.0190 h1        1 MOL      0.101272
    139 H64         8.6300   -4.1690   -1.8030 hc        1 MOL      0.072002
    140 H65         9.7530   -4.0290   -0.5270 hc        1 MOL      0.072002
    141 H66         8.5940   -5.4400   -0.5790 hc        1 MOL      0.072002
    142 N13         7.7550   -1.4580   -1.5930 n         1 MOL     -0.428659
    143 C46         7.9200   -0.0430   -1.9220 c3        1 MOL      0.103828
    144 C47         6.9160    0.9380   -1.1970 c         1 MOL      0.335998
    145 O19         7.1220    2.1250   -1.1440 o         1 MOL     -0.531679
    146 C48         7.5280    0.0390   -3.4170 c3        1 MOL     -0.384824
    147 H67         7.3490   -2.1200   -2.2260 hn        1 MOL      0.282893
    148 H68         8.9140    0.3340   -1.7200 h1        1 MOL      0.110301
    149 H69         8.2690   -0.4860   -4.0230 hc        1 MOL      0.107444
    150 H70         6.4910   -0.2900   -3.4850 hc        1 MOL      0.107444
    151 H71         7.4560    1.0810   -3.7230 hc        1 MOL      0.107444
    152 N14         5.7570    0.5020   -0.6850 n         1 MOL      0.064173
    153 C49         4.8760    1.3370    0.1010 c3        1 MOL     -0.194194
    154 C50         5.4610    1.3350    1.5390 c         1 MOL      0.453754
    155 O20         5.5110    2.3690    2.1760 o         1 MOL     -0.516410
    156 C51         3.5270    0.8460    0.0100 c3        1 MOL     -0.003483
    157 C52         2.8180    1.2690   -1.2900 c3        1 MOL     -0.071971
    158 C53         1.4480    0.6320   -1.3480 c         1 MOL      0.737444
    159 O21         0.5840    0.8540   -0.4580 o         1 MOL     -0.758815
    160 O22         1.2680   -0.2420   -2.2350 o         1 MOL     -0.758815
    161 H72         5.5370   -0.4640   -0.8970 hn        1 MOL      0.108478
    162 H73         4.8690    2.3810   -0.2380 h1        1 MOL      0.110962
    163 H74         2.9330    1.2010    0.8530 hc        1 MOL      0.076048
    164 H75         3.3810   -0.2280    0.0520 hc        1 MOL      0.076048
    165 H76         3.4590    1.0520   -2.1420 hc        1 MOL     -0.027415
    166 H77         2.6690    2.3420   -1.2260 hc        1 MOL     -0.027415
    167 N15         6.0040    0.1780    1.9920 n         1 MOL     -0.120557
    168 C54         6.6490    0.0910    3.3150 c3        1 MOL     -0.246812
    169 H78         7.1160   -0.8870    3.4280 h1        1 MOL      0.100872
    170 H79         7.4090    0.8670    3.4010 h1        1 MOL      0.100872
    171 H80         5.9000    0.2280    4.0950 h1        1 MOL      0.100872
    172 H81         5.9450   -0.5940    1.3480 hn        1 MOL      0.139198
    173 Ca1        -1.6640   -0.0870   -1.2440 Ca        1 MOL      1.820074
    174 O23        -0.1250   -2.6240   -1.7840 oh        1 MOL     -0.868939
    175 H82         0.0460   -2.6290   -2.7180 ho        1 MOL      0.415685
    176 H83         0.5490   -3.2010   -1.4160 ho        1 MOL      0.415685
    177 O24        -2.4180   -1.2010   -3.5990 oh        1 MOL     -0.868939
    178 H84        -2.8860   -1.0580   -4.4280 ho        1 MOL      0.415685
    179 H85        -1.8180   -1.9150   -3.7880 ho        1 MOL      0.415685
@<TRIPOS>BOND
     1    1    2 1   
     2    1    4 1   
     3    1    5 1   
     4    1    6 1   
     5    2    3 2   
     6    2    7 1   
     7    7    8 1   
     8    7   15 1   
     9    8    9 1   
    10    8   11 1   
    11    8   16 1   
    12    9   10 2   
    13    9   19 1   
    14   11   12 1   
    15   11   17 1   
    16   11   18 1   
    17   12   13 1   
    18   12   14 1   
    19   19   20 1   
    20   19   28 1   
    21   20   21 1   
    22   20   23 1   
    23   20   29 1   
    24   21   22 2   
    25   21   41 1   
    26   23   24 1   
    27   23   30 1   
    28   23   31 1   
    29   24   25 1   
    30   24   32 1   
    31   24   33 1   
    32   25   26 1   
    33   25   34 1   
    34   25   35 1   
    35   26   27 1   
    36   26   36 1   
    37   26   37 1   
    38   27   38 1   
    39   27   39 1   
    40   27   40 1   
    41   41   42 1   
    42   41   49 1   
    43   42   43 1   
    44   42   45 1   
    45   42   50 1   
    46   43   44 2   
    47   43   53 1   
    48   45   46 1   
    49   45   51 1   
    50   45   52 1   
    51   46   47 1   
    52   46   48 1   
    53   53   54 1   
    54   53   57 1   
    55   54   55 1   
    56   54   58 1   
    57   54   59 1   
    58   55   56 2   
    59   55   60 1   
    60   60   61 1   
    61   60   68 1   
    62   61   62 1   
    63   61   64 1   
    64   61   69 1   
    65   62   63 2   
    66   62   74 1   
    67   64   65 1   
    68   64   70 1   
    69   64   71 1   
    70   65   66 1   
    71   65   67 2   
    72   66   72 1   
    73   66   73 1   
    74   74   75 1   
    75   74   78 1   
    76   75   76 1   
    77   75   79 1   
    78   75   80 1   
    79   76   77 2   
    80   76   81 1   
    81   81   82 1   
    82   81   93 1   
    83   82   83 1   
    84   82   85 1   
    85   82   94 1   
    86   83   84 2   
    87   83  102 1   
    88   85   86 1   
    89   85   95 1   
    90   85   96 1   
    91   86   87 ar  
    92   86   88 ar  
    93   87   89 ar  
    94   87   97 1   
    95   88   90 ar  
    96   88   98 1   
    97   89   91 ar  
    98   89   99 1   
    99   90   91 ar  
   100   90  100 1   
   101   91   92 1   
   102   92  101 1   
   103  102  103 1   
   104  102  110 1   
   105  103  104 1   
   106  103  106 1   
   107  103  111 1   
   108  104  105 2   
   109  104  121 1   
   110  106  107 1   
   111  106  108 1   
   112  106  112 1   
   113  107  109 1   
   114  107  113 1   
   115  107  114 1   
   116  108  115 1   
   117  108  116 1   
   118  108  117 1   
   119  109  118 1   
   120  109  119 1   
   121  109  120 1   
   122  121  122 1   
   123  121  127 1   
   124  122  123 1   
   125  122  125 1   
   126  122  128 1   
   127  123  124 2   
   128  123  132 1   
   129  125  126 1   
   130  125  129 1   
   131  125  130 1   
   132  126  131 1   
   133  132  133 1   
   134  132  137 1   
   135  133  134 1   
   136  133  136 1   
   137  133  138 1   
   138  134  135 2   
   139  134  142 1   
   140  136  139 1   
   141  136  140 1   
   142  136  141 1   
   143  142  143 1   
   144  142  147 1   
   145  143  144 1   
   146  143  146 1   
   147  143  148 1   
   148  144  145 2   
   149  144  152 1   
   150  146  149 1   
   151  146  150 1   
   152  146  151 1   
   153  152  153 1   
   154  152  161 1   
   155  153  154 1   
   156  153  156 1   
   157  153  162 1   
   158  154  155 2   
   159  154  167 1   
   160  156  157 1   
   161  156  163 1   
   162  156  164 1   
   163  157  158 1   
   164  157  165 1   
   165  157  166 1   
   166  158  159 1   
   167  158  160 1   
   168  167  168 1   
   169  167  172 1   
   170  168  169 1   
   171  168  170 1   
   172  168  171 1   
   173  174  175 1   
   174  174  176 1   
   175  177  178 1   
   176  177  179 1   
@<TRIPOS>SUBSTRUCTURE
     1 MOL         1 TEMP              0 ****  ****    0 ROOT
