@<TRIPOS>MOLECULE
MOL
  189   185     1     0     0
SMALL
resp


@<TRIPOS>ATOM
      1 C1         -0.1760    0.3830    6.5570 c3        1 MOL     -0.276536
      2 C2         -0.4080    0.7910    5.1090 c         1 MOL      0.733552
      3 O1          0.3550    1.5230    4.5350 o         1 MOL     -0.588412
      4 H1          0.5630   -0.4170    6.5950 hc        1 MOL      0.068059
      5 H2          0.1890    1.2400    7.1230 hc        1 MOL      0.068059
      6 H3         -1.1130    0.0320    6.9910 hc        1 MOL      0.068059
      7 N1         -1.5380    0.2760    4.5620 n         1 MOL     -0.617727
      8 C3         -2.0380    0.5990    3.1770 c3        1 MOL      0.134497
      9 C4         -2.5680    1.9940    3.1330 c         1 MOL      0.584765
     10 O2         -3.4890    2.2930    3.8740 o         1 MOL     -0.552179
     11 C5         -3.1900   -0.3650    3.0100 c3        1 MOL     -0.051314
     12 C6         -3.9990   -0.3450    1.7130 c         1 MOL      0.665632
     13 O3         -3.4820   -0.0780    0.6360 o         1 MOL     -0.630365
     14 O4         -5.1860   -0.5870    1.7680 o         1 MOL     -0.630365
     15 H4         -2.0190   -0.4490    5.0720 hn        1 MOL      0.334368
     16 H5         -1.3140    0.4530    2.3700 h1        1 MOL     -0.025144
     17 H6         -3.9230   -0.2900    3.8110 hc        1 MOL      0.000013
     18 H7         -2.7590   -1.3540    3.1500 hc        1 MOL      0.000013
     19 N2         -2.0730    2.8890    2.2190 n         1 MOL     -0.167941
     20 C7         -2.2000    4.3410    2.3170 c3        1 MOL     -0.082575
     21 C8         -3.4820    4.7870    1.5980 c         1 MOL      0.495019
     22 O5         -4.0150    5.8550    1.9430 o         1 MOL     -0.539539
     23 C9         -0.8960    4.9600    1.7540 c3        1 MOL     -0.045795
     24 C10        -0.7750    4.6900    0.1850 c3        1 MOL      0.083677
     25 C11         0.6900    4.8720   -0.3230 c3        1 MOL     -0.268902
     26 C12         0.8570    4.3020   -1.7710 c3        1 MOL      0.142809
     27 N3          0.2230    5.3270   -2.6840 n4        1 MOL     -0.419420
     28 H8         -1.3190    2.5110    1.6670 hn        1 MOL      0.036145
     29 H9         -2.2160    4.6670    3.3560 h1        1 MOL      0.103267
     30 H10        -0.0230    4.5240    2.2510 hc        1 MOL      0.053286
     31 H11        -0.8850    6.0280    1.9770 hc        1 MOL      0.053286
     32 H12        -1.4380    5.3380   -0.3850 hc        1 MOL      0.018206
     33 H13        -1.1520    3.6850   -0.0300 hc        1 MOL      0.018206
     34 H14         1.3080    4.3000    0.3680 hc        1 MOL      0.061709
     35 H15         0.9730    5.9230   -0.3570 hc        1 MOL      0.061709
     36 H16         0.3030    3.3560   -1.7690 hx        1 MOL      0.051185
     37 H17         1.8680    3.9870   -2.0410 hx        1 MOL      0.051185
     38 H18         0.3380    5.1130   -3.6650 hn        1 MOL      0.320223
     39 H19        -0.7690    5.4270   -2.5830 hn        1 MOL      0.320223
     40 H20         0.5800    6.2710   -2.5950 hn        1 MOL      0.320223
     41 N4         -3.9290    4.0220    0.5900 n         1 MOL     -0.407770
     42 C13        -4.8370    4.4760   -0.4660 c3        1 MOL      0.177296
     43 C14        -5.9190    3.4890   -0.7650 c         1 MOL      0.487164
     44 O6         -6.5460    3.5170   -1.7890 o         1 MOL     -0.501680
     45 C15        -4.0770    4.8530   -1.7810 c3        1 MOL     -0.242214
     46 C16        -3.0790    3.7190   -2.1380 c         1 MOL      1.034698
     47 O7         -3.0740    2.5560   -1.6390 o         1 MOL     -0.808127
     48 O8         -2.2080    4.0870   -2.9330 o         1 MOL     -0.808127
     49 H21        -3.3880    3.1810    0.4140 hn        1 MOL      0.076686
     50 H22        -5.4210    5.3010   -0.0410 h1        1 MOL      0.068247
     51 H23        -3.4190    5.6870   -1.5760 hc        1 MOL      0.038961
     52 H24        -4.7380    5.0040   -2.6370 hc        1 MOL      0.038961
     53 N5         -6.1130    2.5770    0.2380 n         1 MOL     -0.374272
     54 C17        -7.4220    1.8520    0.5290 c3        1 MOL     -0.341121
     55 C18        -7.7390    0.5590   -0.2170 c         1 MOL      0.702739
     56 O9         -8.8880    0.3130   -0.4200 o         1 MOL     -0.604561
     57 H25        -5.3870    2.4550    0.9380 hn        1 MOL      0.316049
     58 H26        -8.1770    2.5790    0.2470 h1        1 MOL      0.153733
     59 H27        -7.4910    1.6580    1.6010 h1        1 MOL      0.153733
     60 N6         -6.7270   -0.2140   -0.6550 n         1 MOL     -0.293020
     61 C19        -6.8840   -1.3420   -1.6540 c3        1 MOL     -0.005484
     62 C20        -6.6360   -2.7200   -1.1380 c         1 MOL      0.285601
     63 O10        -6.9380   -3.7280   -1.8100 o         1 MOL     -0.509383
     64 C21        -6.0890   -0.9660   -2.9350 c3        1 MOL     -0.179394
     65 C22        -4.5580   -0.6870   -2.6840 c         1 MOL      0.841560
     66 O11        -3.9280    0.2080   -3.2750 o         1 MOL     -0.766957
     67 O12        -3.9260   -1.4510   -1.9820 o         1 MOL     -0.766957
     68 H28        -5.7690   -0.0420   -0.3540 hn        1 MOL      0.138759
     69 H29        -7.9130   -1.2600   -2.0370 h1        1 MOL      0.124945
     70 H30        -6.4860   -0.0170   -3.2720 hc        1 MOL      0.059060
     71 H31        -6.1220   -1.7000   -3.7390 hc        1 MOL      0.059060
     72 N7         -6.0470   -2.7670    0.0550 n         1 MOL      0.002996
     73 C23        -5.7010   -3.9900    0.7030 c3        1 MOL     -0.083549
     74 C24        -4.4940   -4.6770    0.0320 c         1 MOL      0.454424
     75 O13        -4.3460   -5.8760    0.1620 o         1 MOL     -0.561157
     76 H32        -5.9640   -1.9140    0.5910 hn        1 MOL      0.096677
     77 H33        -6.6300   -4.5620    0.7270 h1        1 MOL      0.069232
     78 H34        -5.4850   -3.9110    1.7690 h1        1 MOL      0.069232
     79 N8         -3.6250   -3.9770   -0.6540 n         1 MOL     -0.026754
     80 C25        -2.3630   -4.4940   -1.1620 c3        1 MOL     -0.417562
     81 C26        -1.2170   -3.6180   -0.5830 c         1 MOL      0.722416
     82 O14        -1.4350   -2.3910   -0.5240 o         1 MOL     -0.693864
     83 C27        -2.3330   -4.6820   -2.7070 c3        1 MOL      0.474949
     84 C28        -3.1460   -5.8960   -3.1760 c3        1 MOL     -0.433686
     85 O15        -2.9130   -3.5260   -3.2540 oh        1 MOL     -0.607556
     86 H35        -3.7770   -2.9810   -0.6530 hn        1 MOL      0.159342
     87 H36        -2.1470   -5.4660   -0.7090 h1        1 MOL      0.119403
     88 H37        -1.3140   -4.6650   -3.0820 h1        1 MOL     -0.024374
     89 H38        -3.3160   -3.1230   -2.4750 ho        1 MOL      0.402649
     90 H39        -2.4200   -6.6770   -3.4160 hc        1 MOL      0.116323
     91 H40        -3.8340   -6.2470   -2.4140 hc        1 MOL      0.116323
     92 H41        -3.7310   -5.7340   -4.0830 hc        1 MOL      0.116323
     93 N9         -0.1520   -4.2540   -0.0590 n         1 MOL     -0.622122
     94 C29         0.8880   -3.5460    0.6140 c3        1 MOL      0.072325
     95 C30         2.1860   -3.5900   -0.1860 c         1 MOL      0.379382
     96 O16         2.6320   -4.6950   -0.4120 o         1 MOL     -0.536854
     97 C31         0.9860   -4.2530    2.0390 c3        1 MOL      0.008399
     98 C32        -0.1980   -3.7330    2.9000 c3        1 MOL      0.219845
     99 C33         2.3040   -3.8730    2.6610 c3        1 MOL     -0.263711
    100 C34        -0.1040   -3.9780    4.4380 c3        1 MOL     -0.384758
    101 H42        -0.0580   -5.2560   -0.1450 hn        1 MOL      0.361620
    102 H43         0.7370   -2.4910    0.8480 h1        1 MOL      0.130540
    103 H44         0.9920   -5.3370    1.8990 hc        1 MOL      0.028086
    104 H45        -1.1290   -4.1810    2.5530 hc        1 MOL     -0.014018
    105 H46        -0.2810   -2.6650    2.7150 hc        1 MOL     -0.014018
    106 H47         2.4970   -4.3880    3.5970 hc        1 MOL      0.065041
    107 H48         3.2200   -4.1320    2.1440 hc        1 MOL      0.065041
    108 H49         2.2500   -2.7980    2.8660 hc        1 MOL      0.065041
    109 H50        -1.1270   -3.9360    4.8190 hc        1 MOL      0.094252
    110 H51         0.3760   -4.9170    4.7310 hc        1 MOL      0.094252
    111 H52         0.5270   -3.1830    4.8330 hc        1 MOL      0.094252
    112 N10         2.6680   -2.4980   -0.7340 n         1 MOL     -0.066168
    113 C35         3.7870   -2.1710   -1.6600 c3        1 MOL     -0.095640
    114 C36         5.0810   -2.0940   -0.9290 c         1 MOL      0.472683
    115 O17         5.1330   -2.2440    0.3060 o         1 MOL     -0.450839
    116 C37         3.4800   -0.8120   -2.3460 c3        1 MOL      0.052931
    117 C38         2.2500   -0.8070   -3.1420 c3        1 MOL     -0.289153
    118 O18         3.1970    0.0660   -1.2650 oh        1 MOL     -0.442698
    119 H53         2.1460   -1.6860   -0.4480 hn        1 MOL      0.309558
    120 H54         3.8000   -3.0230   -2.3540 h1        1 MOL      0.085484
    121 H55         4.3470   -0.5330   -2.9490 h1        1 MOL      0.059029
    122 H56         2.2470    0.0130   -1.1080 ho        1 MOL      0.265787
    123 H57         1.4760   -1.4290   -2.6860 hc        1 MOL      0.087039
    124 H58         1.8470    0.1980   -3.2250 hc        1 MOL      0.087039
    125 H59         2.4220   -1.1330   -4.1700 hc        1 MOL      0.087039
    126 N11         6.1930   -1.9080   -1.6470 n         1 MOL     -0.383171
    127 C39         7.4560   -1.5940   -0.8940 c3        1 MOL     -0.058827
    128 C40         7.4110   -0.3750   -0.0590 c         1 MOL      0.115976
    129 O19         8.1890   -0.2480    0.9240 o         1 MOL     -0.480362
    130 C41         8.5950   -1.3770   -1.9160 c3        1 MOL      0.283976
    131 C42         9.1190   -2.6400   -2.6620 c3        1 MOL     -0.491710
    132 O20         8.1590   -0.5800   -2.9400 oh        1 MOL     -0.648596
    133 H60         6.1730   -1.7380   -2.6400 hn        1 MOL      0.290944
    134 H61         7.7280   -2.3830   -0.1920 h1        1 MOL      0.167293
    135 H62         9.5110   -0.9870   -1.4940 h1        1 MOL      0.073276
    136 H63         8.9180   -0.5530   -3.5200 ho        1 MOL      0.382329
    137 H64         9.3350   -3.4170   -1.9280 hc        1 MOL      0.141416
    138 H65         8.4510   -3.0310   -3.4310 hc        1 MOL      0.141416
    139 H66        10.0930   -2.2870   -2.9980 hc        1 MOL      0.141416
    140 N12         6.5110    0.4840   -0.3620 n         1 MOL     -0.001043
    141 C43         6.2900    1.7780    0.4000 c3        1 MOL      0.148672
    142 C44         5.5130    1.5480    1.7360 c         1 MOL      0.324201
    143 O21         5.8990    1.9190    2.8310 o         1 MOL     -0.493359
    144 C45         5.6040    2.8340   -0.4590 c3        1 MOL     -0.560487
    145 C46         6.3530    3.0370   -1.8690 c3        1 MOL      0.114555
    146 C47         7.8560    3.4900   -1.6710 c3        1 MOL     -0.109613
    147 C48         8.4080    3.9670   -3.0290 c3        1 MOL     -0.112610
    148 N13         8.8990    2.9190   -3.9540 n4        1 MOL     -0.446347
    149 H67         6.0930    0.3250   -1.2590 hn        1 MOL      0.230603
    150 H68         7.2920    2.1080    0.6570 h1        1 MOL      0.039045
    151 H69         5.7820    3.8130   -0.0220 hc        1 MOL      0.186083
    152 H70         4.5550    2.5930   -0.6360 hc        1 MOL      0.186083
    153 H71         5.8560    3.8530   -2.3780 hc        1 MOL      0.003101
    154 H72         6.1660    2.1410   -2.4550 hc        1 MOL      0.003101
    155 H73         8.4380    2.6330   -1.3100 hc        1 MOL      0.105812
    156 H74         7.8330    4.2970   -0.9380 hc        1 MOL      0.105812
    157 H75         9.3320    4.5480   -2.9320 hx        1 MOL      0.128981
    158 H76         7.5980    4.5170   -3.5180 hx        1 MOL      0.128981
    159 H77         9.7520    2.5150   -3.5950 hn        1 MOL      0.345023
    160 H78         8.1510    2.2530   -4.0920 hn        1 MOL      0.345023
    161 H79         9.1570    3.3990   -4.8130 hn        1 MOL      0.345023
    162 N14         4.4270    0.7810    1.6770 n         1 MOL      0.027908
    163 C49         3.6160    0.3750    2.8280 c3        1 MOL     -0.221653
    164 C50         4.4320   -0.6270    3.6380 c         1 MOL      0.691556
    165 O22         4.3170   -0.5450    4.8490 o         1 MOL     -0.575103
    166 C51         2.3290   -0.1510    2.1700 c3        1 MOL      0.082462
    167 C52         1.6920    1.0350    1.3640 c3        1 MOL     -0.115106
    168 C53         0.5260    0.6980    0.3800 c         1 MOL      0.801361
    169 O23         0.5760   -0.2180   -0.4570 o         1 MOL     -0.729960
    170 O24        -0.5280    1.4190    0.3680 o         1 MOL     -0.729960
    171 H80         4.1540    0.5560    0.7270 hn        1 MOL     -0.036160
    172 H81         3.3950    1.1700    3.5370 h1        1 MOL      0.128671
    173 H82         1.6350   -0.6270    2.8650 hc        1 MOL     -0.033979
    174 H83         2.6740   -0.8970    1.4620 hc        1 MOL     -0.033979
    175 H84         2.3840    1.6790    0.8060 hc        1 MOL      0.067356
    176 H85         1.2930    1.7460    2.0720 hc        1 MOL      0.067356
    177 N15         5.2340   -1.4820    3.0560 n         1 MOL     -0.355811
    178 C54         6.2610   -2.1860    3.8520 c3        1 MOL     -0.455655
    179 H86         6.5870   -3.0780    3.3170 h1        1 MOL      0.163192
    180 H87         7.1140   -1.5260    4.0100 h1        1 MOL      0.163192
    181 H88         5.8410   -2.4740    4.8150 h1        1 MOL      0.163192
    182 H89         5.3640   -1.4120    2.0640 hn        1 MOL      0.381237
    183 Ca1        -1.9690    0.2210   -1.4340 Ca        1 MOL      1.777591
    184 O25        -0.6220    1.9740   -3.3460 oh        1 MOL     -0.853870
    185 H90        -0.5130    1.8470   -4.2900 ho        1 MOL      0.403048
    186 H91        -1.1680    2.7530   -3.2670 ho        1 MOL      0.403048
    187 O26        -1.3820   -1.3780   -3.3980 oh        1 MOL     -0.853870
    188 H92        -1.0050   -1.3520   -4.2720 ho        1 MOL      0.403048
    189 H93        -1.8810   -2.1920   -3.3780 ho        1 MOL      0.403048
@<TRIPOS>BOND
     1    1    2 1   
     2    1    4 1   
     3    1    5 1   
     4    1    6 1   
     5    2    3 2   
     6    2    7 1   
     7    7    8 1   
     8    7   15 1   
     9    8    9 1   
    10    8   11 1   
    11    8   16 1   
    12    9   10 2   
    13    9   19 1   
    14   11   12 1   
    15   11   17 1   
    16   11   18 1   
    17   12   13 1   
    18   12   14 1   
    19   19   20 1   
    20   19   28 1   
    21   20   21 1   
    22   20   23 1   
    23   20   29 1   
    24   21   22 2   
    25   21   41 1   
    26   23   24 1   
    27   23   30 1   
    28   23   31 1   
    29   24   25 1   
    30   24   32 1   
    31   24   33 1   
    32   25   26 1   
    33   25   34 1   
    34   25   35 1   
    35   26   27 1   
    36   26   36 1   
    37   26   37 1   
    38   27   38 1   
    39   27   39 1   
    40   27   40 1   
    41   41   42 1   
    42   41   49 1   
    43   42   43 1   
    44   42   45 1   
    45   42   50 1   
    46   43   44 2   
    47   43   53 1   
    48   45   46 1   
    49   45   51 1   
    50   45   52 1   
    51   46   47 1   
    52   46   48 1   
    53   53   54 1   
    54   53   57 1   
    55   54   55 1   
    56   54   58 1   
    57   54   59 1   
    58   55   56 2   
    59   55   60 1   
    60   60   61 1   
    61   60   68 1   
    62   61   62 1   
    63   61   64 1   
    64   61   69 1   
    65   62   63 2   
    66   62   72 1   
    67   64   65 1   
    68   64   70 1   
    69   64   71 1   
    70   65   66 1   
    71   65   67 1   
    72   72   73 1   
    73   72   76 1   
    74   73   74 1   
    75   73   77 1   
    76   73   78 1   
    77   74   75 2   
    78   74   79 1   
    79   79   80 1   
    80   79   86 1   
    81   80   81 1   
    82   80   83 1   
    83   80   87 1   
    84   81   82 2   
    85   81   93 1   
    86   83   84 1   
    87   83   85 1   
    88   83   88 1   
    89   84   90 1   
    90   84   91 1   
    91   84   92 1   
    92   85   89 1   
    93   93   94 1   
    94   93  101 1   
    95   94   95 1   
    96   94   97 1   
    97   94  102 1   
    98   95   96 2   
    99   95  112 1   
   100   97   98 1   
   101   97   99 1   
   102   97  103 1   
   103   98  100 1   
   104   98  104 1   
   105   98  105 1   
   106   99  106 1   
   107   99  107 1   
   108   99  108 1   
   109  100  109 1   
   110  100  110 1   
   111  100  111 1   
   112  112  113 1   
   113  112  119 1   
   114  113  114 1   
   115  113  116 1   
   116  113  120 1   
   117  114  115 2   
   118  114  126 1   
   119  116  117 1   
   120  116  118 1   
   121  116  121 1   
   122  117  123 1   
   123  117  124 1   
   124  117  125 1   
   125  118  122 1   
   126  126  127 1   
   127  126  133 1   
   128  127  128 1   
   129  127  130 1   
   130  127  134 1   
   131  128  129 2   
   132  128  140 1   
   133  130  131 1   
   134  130  132 1   
   135  130  135 1   
   136  131  137 1   
   137  131  138 1   
   138  131  139 1   
   139  132  136 1   
   140  140  141 1   
   141  140  149 1   
   142  141  142 1   
   143  141  144 1   
   144  141  150 1   
   145  142  143 2   
   146  142  162 1   
   147  144  145 1   
   148  144  151 1   
   149  144  152 1   
   150  145  146 1   
   151  145  153 1   
   152  145  154 1   
   153  146  147 1   
   154  146  155 1   
   155  146  156 1   
   156  147  148 1   
   157  147  157 1   
   158  147  158 1   
   159  148  159 1   
   160  148  160 1   
   161  148  161 1   
   162  162  163 1   
   163  162  171 1   
   164  163  164 1   
   165  163  166 1   
   166  163  172 1   
   167  164  165 2   
   168  164  177 1   
   169  166  167 1   
   170  166  173 1   
   171  166  174 1   
   172  167  168 1   
   173  167  175 1   
   174  167  176 1   
   175  168  169 1   
   176  168  170 1   
   177  177  178 1   
   178  177  182 1   
   179  178  179 1   
   180  178  180 1   
   181  178  181 1   
   182  184  185 1   
   183  184  186 1   
   184  187  188 1   
   185  187  189 1   
@<TRIPOS>SUBSTRUCTURE
     1 MOL         1 TEMP              0 ****  ****    0 ROOT
