@<TRIPOS>MOLECULE
MOL
  172   171     1     0     0
SMALL
resp


@<TRIPOS>ATOM
      1 C1          0.8070    4.0180    5.4300 c3        1 MOL     -0.494920
      2 C2          0.1570    3.9530    4.0560 c         1 MOL      0.735200
      3 O1          0.8530    4.0300    3.0430 o         1 MOL     -0.577202
      4 H1          1.0660    3.0110    5.7570 hc        1 MOL      0.126501
      5 H2          1.7110    4.6250    5.3750 hc        1 MOL      0.126501
      6 H3          0.1120    4.4640    6.1400 hc        1 MOL      0.126501
      7 N1         -1.1440    3.7540    3.9580 n         1 MOL     -0.552185
      8 C3         -1.8570    3.5330    2.6980 c3        1 MOL      0.101235
      9 C4         -2.1930    4.7290    1.7530 c         1 MOL      0.559464
     10 O2         -2.4510    5.8260    2.3030 o         1 MOL     -0.577559
     11 C5         -3.2730    2.8490    3.0480 c3        1 MOL     -0.124866
     12 C6         -4.0080    2.1760    1.9230 c         1 MOL      0.586103
     13 O3         -5.2600    2.2970    1.8910 o         1 MOL     -0.661577
     14 O4         -3.4050    1.7700    0.8570 o         1 MOL     -0.661577
     15 H4         -1.7450    3.7930    4.7670 hn        1 MOL      0.289285
     16 H5         -1.2890    2.7500    2.1870 h1        1 MOL      0.068657
     17 H6         -3.8820    3.5560    3.6200 hc        1 MOL      0.031450
     18 H7         -3.0430    2.0050    3.7000 hc        1 MOL      0.031450
     19 N2         -2.2990    4.5110    0.4400 n         1 MOL     -0.536735
     20 C7         -2.7840    5.5460   -0.4760 c3        1 MOL      0.408866
     21 C8         -3.8980    5.0680   -1.4380 c         1 MOL      0.400241
     22 O5         -4.2960    5.7850   -2.3450 o         1 MOL     -0.556078
     23 C9         -1.6320    6.2410   -1.1490 c3        1 MOL     -0.179429
     24 H8         -1.8640    3.6520    0.1200 hn        1 MOL      0.291548
     25 H9         -3.2380    6.3090    0.1610 h1        1 MOL     -0.009475
     26 H10        -2.0520    6.9370   -1.8740 hc        1 MOL      0.035080
     27 H11        -1.0850    6.9200   -0.4930 hc        1 MOL      0.035080
     28 H12        -0.9850    5.5550   -1.6950 hc        1 MOL      0.035080
     29 N3         -4.3020    3.7730   -1.3440 n         1 MOL     -0.447927
     30 C10        -5.2390    3.2650   -2.3950 c3        1 MOL      0.182477
     31 C11        -6.4400    2.4360   -1.9330 c         1 MOL      0.382003
     32 O6         -7.4810    2.4720   -2.5780 o         1 MOL     -0.560573
     33 C12        -4.3420    2.5320   -3.4470 c3        1 MOL     -0.117911
     34 C13        -3.4410    1.4480   -2.7720 c         1 MOL      0.655030
     35 O7         -2.1910    1.3450   -2.9470 o         1 MOL     -0.689000
     36 O8         -3.9260    0.6650   -1.9470 o         1 MOL     -0.689000
     37 H13        -3.8890    3.1670   -0.6610 hn        1 MOL      0.303578
     38 H14        -5.7280    4.0610   -2.9470 h1        1 MOL      0.067660
     39 H15        -3.6440    3.1570   -4.0000 hc        1 MOL      0.023119
     40 H16        -4.9680    2.1170   -4.2370 hc        1 MOL      0.023119
     41 N4         -6.3410    1.8070   -0.7540 n         1 MOL     -0.195338
     42 C14        -7.4640    1.1050   -0.2620 c3        1 MOL     -0.052244
     43 C15        -7.4670   -0.4000   -0.7000 c         1 MOL      0.351129
     44 O9         -8.4930   -1.0330   -0.4770 o         1 MOL     -0.587885
     45 H17        -5.4840    1.7550   -0.2300 hn        1 MOL      0.181551
     46 H18        -8.4240    1.6220   -0.2630 h1        1 MOL      0.085631
     47 H19        -7.3200    1.0250    0.8070 h1        1 MOL      0.085631
     48 N5         -6.3530   -0.9050   -1.2350 n         1 MOL     -0.003566
     49 C16        -6.1850   -2.2220   -1.8140 c3        1 MOL     -0.266083
     50 C17        -5.9810   -3.4790   -0.8630 c         1 MOL      0.472112
     51 O10        -5.7210   -4.5550   -1.3950 o         1 MOL     -0.478445
     52 C18        -5.0850   -2.2000   -2.9810 c3        1 MOL     -0.043557
     53 C19        -3.6530   -2.3440   -2.4920 c         1 MOL      0.692798
     54 N6         -2.7670   -2.6120   -3.4150 n         1 MOL     -0.729229
     55 O11        -3.2540   -2.1690   -1.3740 o         1 MOL     -0.625182
     56 H20        -5.7130   -0.1470   -1.4450 hn        1 MOL      0.147383
     57 H21        -7.1280   -2.4830   -2.2880 h1        1 MOL      0.147117
     58 H22        -5.0840   -1.2990   -3.5880 hc        1 MOL      0.033020
     59 H23        -5.2410   -3.0320   -3.6730 hc        1 MOL      0.033020
     60 H24        -2.8890   -2.7530   -4.4100 hn        1 MOL      0.357480
     61 H25        -1.8570   -2.6320   -2.9880 hn        1 MOL      0.357480
     62 N7         -6.0650   -3.2610    0.4750 n         1 MOL     -0.272187
     63 C20        -6.0240   -4.2990    1.5540 c3        1 MOL     -0.278913
     64 C21        -4.6250   -4.9290    1.8210 c         1 MOL      0.556933
     65 O12        -4.4280   -5.9910    2.4390 o         1 MOL     -0.572771
     66 H26        -6.1010   -2.2710    0.6950 hn        1 MOL      0.278695
     67 H27        -6.6520   -5.1450    1.2810 h1        1 MOL      0.133701
     68 H28        -6.3790   -3.8600    2.4830 h1        1 MOL      0.133701
     69 N8         -3.5730   -4.2340    1.3990 n         1 MOL     -0.296207
     70 C22        -2.1560   -4.5850    1.4520 c3        1 MOL     -0.313950
     71 C23        -1.2280   -3.3730    1.6250 c         1 MOL      0.488836
     72 O13        -1.3200   -2.4060    0.8350 o         1 MOL     -0.445843
     73 C24        -1.6710   -5.3320    0.1410 c3        1 MOL      0.484314
     74 C25        -2.1750   -6.7770    0.2010 c3        1 MOL     -0.637057
     75 O14        -2.3660   -4.7940   -0.9820 oh        1 MOL     -0.522531
     76 H29        -3.7900   -3.4110    0.8590 hn        1 MOL      0.322035
     77 H30        -2.0400   -5.2010    2.3370 h1        1 MOL      0.152654
     78 H31        -0.5950   -5.2550   -0.0170 h1        1 MOL      0.022509
     79 H32        -2.2140   -3.8510   -0.9310 ho        1 MOL      0.271845
     80 H33        -1.5360   -7.2930   -0.5030 hc        1 MOL      0.168943
     81 H34        -2.0150   -7.1030    1.2330 hc        1 MOL      0.168943
     82 H35        -3.2210   -6.9040   -0.0810 hc        1 MOL      0.168943
     83 N9         -0.1810   -3.5530    2.4760 n         1 MOL     -0.474731
     84 C26         0.9530   -2.6070    2.3980 c3        1 MOL     -0.116984
     85 C27         1.6080   -2.8920    1.0710 c         1 MOL      0.504210
     86 O15         2.1220   -4.0100    0.8240 o         1 MOL     -0.597404
     87 C28         2.0390   -2.7360    3.5490 c3        1 MOL      0.022216
     88 C29         1.4120   -2.4160    4.9530 c3        1 MOL      0.030960
     89 C30         3.2400   -1.7800    3.3780 c3        1 MOL     -0.085516
     90 C31         2.3930   -2.7410    6.0720 c3        1 MOL     -0.166468
     91 H36        -0.0940   -4.3080    3.1430 hn        1 MOL      0.314793
     92 H37         0.4850   -1.6240    2.3280 h1        1 MOL      0.061066
     93 H38         2.4970   -3.7180    3.4760 hc        1 MOL      0.048622
     94 H39         0.4750   -2.9530    5.1000 hc        1 MOL      0.019965
     95 H40         1.1870   -1.3650    5.1590 hc        1 MOL      0.019965
     96 H41         3.7600   -1.9670    2.4420 hc        1 MOL      0.015977
     97 H42         2.9990   -0.7120    3.3760 hc        1 MOL      0.015977
     98 H43         3.9350   -1.8780    4.2140 hc        1 MOL      0.015977
     99 H44         1.8780   -2.6250    7.0270 hc        1 MOL      0.034470
    100 H45         2.6670   -3.7680    5.8680 hc        1 MOL      0.034470
    101 H46         3.2520   -2.0780    6.0810 hc        1 MOL      0.034470
    102 N10         1.6390   -1.9080    0.1740 n         1 MOL     -0.092925
    103 C32         2.5340   -1.8900   -0.9820 c3        1 MOL      0.057455
    104 C33         3.9320   -1.4810   -0.6670 c         1 MOL      0.389791
    105 O16         4.2020   -0.7470    0.3210 o         1 MOL     -0.332912
    106 C34         1.9630   -1.0920   -2.2040 c3        1 MOL     -0.236989
    107 C35         0.5200   -1.4040   -2.5760 c         1 MOL      0.690004
    108 O17         0.3740   -1.9020   -3.7370 o         1 MOL     -0.680204
    109 O18        -0.3980   -1.1970   -1.7660 o         1 MOL     -0.680204
    110 H47         1.4970   -0.9940    0.5820 hn        1 MOL      0.158094
    111 H48         2.5820   -2.9350   -1.3020 h1        1 MOL      0.052021
    112 H49         2.5580   -1.2630   -3.0980 hc        1 MOL      0.071425
    113 H50         2.0600   -0.0310   -1.9820 hc        1 MOL      0.071425
    114 N11         4.9090   -1.7630   -1.4820 n         1 MOL     -0.629029
    115 C36         6.2660   -1.2430   -1.2530 c3        1 MOL      0.479269
    116 C37         6.5120    0.3170   -1.3000 c         1 MOL      0.076144
    117 O19         7.1240    0.7790   -0.3100 o         1 MOL     -0.438599
    118 C38         7.2230   -1.9660   -2.2780 c3        1 MOL     -0.333707
    119 C39         8.7340   -1.7530   -2.0250 ca        1 MOL      0.346141
    120 C40         9.6530   -1.6230   -3.1300 ca        1 MOL     -0.317839
    121 C41         9.2010   -1.9310   -0.7530 ca        1 MOL     -0.317839
    122 C42        11.0410   -1.5190   -2.8470 ca        1 MOL      0.005167
    123 C43        10.5100   -1.7360   -0.3960 ca        1 MOL      0.005167
    124 C44        11.4500   -1.5940   -1.5060 ca        1 MOL     -0.258497
    125 H51         4.7080   -2.4180   -2.2170 hn        1 MOL      0.343709
    126 H52         6.5090   -1.5430   -0.2370 h1        1 MOL      0.035494
    127 H53         6.9530   -1.6210   -3.2790 hc        1 MOL      0.080043
    128 H54         7.1160   -3.0450   -2.2120 hc        1 MOL      0.080043
    129 H55         9.3450   -1.6530   -4.1650 ha        1 MOL      0.135640
    130 H56         8.4670   -2.1170    0.0160 ha        1 MOL      0.135640
    131 H57        11.7990   -1.4480   -3.6250 ha        1 MOL      0.098304
    132 H58        10.8450   -1.6810    0.6290 ha        1 MOL      0.098304
    133 H59        12.4950   -1.5220   -1.2450 ha        1 MOL      0.121988
    134 N12         5.8350    1.0990   -2.2060 n         1 MOL      0.045526
    135 C45         5.7690    2.5930   -2.0700 c3        1 MOL      0.001319
    136 C46         5.1630    3.0890   -0.7570 c         1 MOL      0.270302
    137 O20         5.3780    4.2690   -0.4110 o         1 MOL     -0.512265
    138 C47         4.8880    3.0890   -3.2690 c3        1 MOL     -0.134615
    139 C48         4.3710    1.8300   -3.9180 c3        1 MOL      0.025731
    140 C49         5.2680    0.6970   -3.4810 c3        1 MOL      0.091684
    141 H60         6.8060    2.8760   -2.2730 h1        1 MOL      0.081009
    142 H61         4.0220    3.6820   -2.9820 hc        1 MOL      0.064323
    143 H62         5.4910    3.6170   -3.9960 hc        1 MOL      0.064323
    144 H63         3.3880    1.5570   -3.5430 hc        1 MOL      0.018481
    145 H64         4.3910    1.9310   -4.9920 hc        1 MOL      0.018481
    146 H65         4.7200   -0.2420   -3.4480 h1        1 MOL     -0.025849
    147 H66         6.0890    0.5550   -4.1960 h1        1 MOL     -0.025849
    148 N13         4.4670    2.2430    0.0170 n         1 MOL      0.013074
    149 C50         3.9220    2.4370    1.4220 c3        1 MOL     -0.042689
    150 C51         4.8670    2.0100    2.5780 c         1 MOL      0.411045
    151 O21         5.1290    2.7440    3.5550 o         1 MOL     -0.566730
    152 C52         2.5320    1.8380    1.5120 c3        1 MOL     -0.195919
    153 C53         1.6680    2.3270    0.3970 c3        1 MOL      0.109126
    154 C54         0.2960    1.5940    0.4370 c         1 MOL      0.434790
    155 O22        -0.5770    2.0200   -0.2700 o         1 MOL     -0.681116
    156 O23         0.1500    0.4470    0.8970 o         1 MOL     -0.681116
    157 H67         4.2950    1.3350   -0.3950 hn        1 MOL      0.037488
    158 H68         3.7920    3.4940    1.6460 h1        1 MOL      0.081706
    159 H69         2.0650    2.1710    2.4450 hc        1 MOL      0.100359
    160 H70         2.6160    0.7510    1.5050 hc        1 MOL      0.100359
    161 H71         2.0600    2.1140   -0.5970 hc        1 MOL      0.040700
    162 H72         1.5490    3.4000    0.2250 hc        1 MOL      0.040700
    163 N14         5.5030    0.8770    2.4590 n         1 MOL     -0.011744
    164 C55         6.5870    0.4460    3.2660 c3        1 MOL     -0.158804
    165 H73         6.3730   -0.5470    3.6610 h1        1 MOL      0.060318
    166 H74         7.4950    0.4090    2.6650 h1        1 MOL      0.060318
    167 H75         6.7250    1.1430    4.0920 h1        1 MOL      0.060318
    168 H76         5.2670    0.2830    1.6760 hn        1 MOL      0.091748
    169 Ca1        -2.0920   -0.0260   -0.3570 Ca        1 MOL      1.713445
    170 O24        -3.8220   -1.1630    1.3490 oh        1 MOL     -1.020813
    171 H77        -3.1980   -1.2180    2.0730 ho        1 MOL      0.455824
    172 H78        -4.6490   -0.9390    1.7660 ho        1 MOL      0.455824
@<TRIPOS>BOND
     1    1    2 1   
     2    1    4 1   
     3    1    5 1   
     4    1    6 1   
     5    2    3 2   
     6    2    7 1   
     7    7    8 1   
     8    7   15 1   
     9    8    9 1   
    10    8   11 1   
    11    8   16 1   
    12    9   10 2   
    13    9   19 1   
    14   11   12 1   
    15   11   17 1   
    16   11   18 1   
    17   12   13 1   
    18   12   14 1   
    19   19   20 1   
    20   19   24 1   
    21   20   21 1   
    22   20   23 1   
    23   20   25 1   
    24   21   22 2   
    25   21   29 1   
    26   23   26 1   
    27   23   27 1   
    28   23   28 1   
    29   29   30 1   
    30   29   37 1   
    31   30   31 1   
    32   30   33 1   
    33   30   38 1   
    34   31   32 2   
    35   31   41 1   
    36   33   34 1   
    37   33   39 1   
    38   33   40 1   
    39   34   35 1   
    40   34   36 1   
    41   41   42 1   
    42   41   45 1   
    43   42   43 1   
    44   42   46 1   
    45   42   47 1   
    46   43   44 2   
    47   43   48 1   
    48   48   49 1   
    49   48   56 1   
    50   49   50 1   
    51   49   52 1   
    52   49   57 1   
    53   50   51 2   
    54   50   62 1   
    55   52   53 1   
    56   52   58 1   
    57   52   59 1   
    58   53   54 1   
    59   53   55 2   
    60   54   60 1   
    61   54   61 1   
    62   62   63 1   
    63   62   66 1   
    64   63   64 1   
    65   63   67 1   
    66   63   68 1   
    67   64   65 2   
    68   64   69 1   
    69   69   70 1   
    70   69   76 1   
    71   70   71 1   
    72   70   73 1   
    73   70   77 1   
    74   71   72 2   
    75   71   83 1   
    76   73   74 1   
    77   73   75 1   
    78   73   78 1   
    79   74   80 1   
    80   74   81 1   
    81   74   82 1   
    82   75   79 1   
    83   83   84 1   
    84   83   91 1   
    85   84   85 1   
    86   84   87 1   
    87   84   92 1   
    88   85   86 2   
    89   85  102 1   
    90   87   88 1   
    91   87   89 1   
    92   87   93 1   
    93   88   90 1   
    94   88   94 1   
    95   88   95 1   
    96   89   96 1   
    97   89   97 1   
    98   89   98 1   
    99   90   99 1   
   100   90  100 1   
   101   90  101 1   
   102  102  103 1   
   103  102  110 1   
   104  103  104 1   
   105  103  106 1   
   106  103  111 1   
   107  104  105 2   
   108  104  114 1   
   109  106  107 1   
   110  106  112 1   
   111  106  113 1   
   112  107  108 1   
   113  107  109 1   
   114  114  115 1   
   115  114  125 1   
   116  115  116 1   
   117  115  118 1   
   118  115  126 1   
   119  116  117 2   
   120  116  134 1   
   121  118  119 1   
   122  118  127 1   
   123  118  128 1   
   124  119  120 ar  
   125  119  121 ar  
   126  120  122 ar  
   127  120  129 1   
   128  121  123 ar  
   129  121  130 1   
   130  122  124 ar  
   131  122  131 1   
   132  123  124 ar  
   133  123  132 1   
   134  124  133 1   
   135  134  135 1   
   136  134  140 1   
   137  135  136 1   
   138  135  138 1   
   139  135  141 1   
   140  136  137 2   
   141  136  148 1   
   142  138  139 1   
   143  138  142 1   
   144  138  143 1   
   145  139  140 1   
   146  139  144 1   
   147  139  145 1   
   148  140  146 1   
   149  140  147 1   
   150  148  149 1   
   151  148  157 1   
   152  149  150 1   
   153  149  152 1   
   154  149  158 1   
   155  150  151 2   
   156  150  163 1   
   157  152  153 1   
   158  152  159 1   
   159  152  160 1   
   160  153  154 1   
   161  153  161 1   
   162  153  162 1   
   163  154  155 1   
   164  154  156 1   
   165  163  164 1   
   166  163  168 1   
   167  164  165 1   
   168  164  166 1   
   169  164  167 1   
   170  170  171 1   
   171  170  172 1   
@<TRIPOS>SUBSTRUCTURE
     1 MOL         1 TEMP              0 ****  ****    0 ROOT
