@<TRIPOS>MOLECULE
MOL
  186   183     1     0     0
SMALL
resp


@<TRIPOS>ATOM
      1 C1         -1.2150    2.8170    6.2690 c3        1 MOL     -0.327695
      2 C2         -1.4200    2.7000    4.7270 c         1 MOL      0.724487
      3 O1         -0.5450    3.1630    3.9160 o         1 MOL     -0.591961
      4 H1         -0.6890    3.7440    6.4960 hc        1 MOL      0.078586
      5 H2         -2.1840    2.8180    6.7660 hc        1 MOL      0.078586
      6 H3         -0.6260    1.9700    6.6230 hc        1 MOL      0.078586
      7 N1         -2.5960    2.1470    4.3390 n         1 MOL     -0.682589
      8 C3         -3.0840    1.9180    2.9670 c3        1 MOL      0.348471
      9 C4         -3.3840    3.3540    2.3190 c         1 MOL      0.362106
     10 O2         -4.3440    4.1170    2.6560 o         1 MOL     -0.576192
     11 C5         -4.4060    1.1500    2.8760 c3        1 MOL     -0.169395
     12 C6         -4.7720    0.6430    1.4670 c         1 MOL      0.665991
     13 O3         -4.1140    0.9890    0.4660 o         1 MOL     -0.598052
     14 O4         -5.8020   -0.0280    1.3550 o         1 MOL     -0.598052
     15 H4         -3.1350    1.8530    5.1430 hn        1 MOL      0.325291
     16 H5         -2.3300    1.4110    2.3650 h1        1 MOL     -0.018962
     17 H6         -5.2730    1.6370    3.3350 hc        1 MOL      0.020308
     18 H7         -4.2230    0.3100    3.5500 hc        1 MOL      0.020308
     19 N2         -2.5460    3.7460    1.3380 n         1 MOL      0.136639
     20 C7         -2.6650    5.0660    0.6670 c3        1 MOL     -0.589237
     21 C8         -3.6770    5.1340   -0.4690 c         1 MOL      0.699186
     22 O5         -4.0770    6.2240   -0.8200 o         1 MOL     -0.586272
     23 C9         -1.3020    5.5790    0.2660 c3        1 MOL      0.185535
     24 C10        -0.7860    4.9830   -1.0480 c3        1 MOL     -0.038986
     25 C11        -0.3070    5.6450    1.3850 c3        1 MOL     -0.272536
     26 C12         0.6470    5.3630   -1.5060 c3        1 MOL     -0.399481
     27 H8         -1.8950    3.0370    1.0110 hn        1 MOL      0.122257
     28 H9         -3.0210    5.7360    1.4460 h1        1 MOL      0.214427
     29 H10        -1.3830    6.6590    0.0900 hc        1 MOL      0.020203
     30 H11        -1.4000    5.0960   -1.9350 hc        1 MOL      0.063335
     31 H12        -0.7650    3.9030   -0.9390 hc        1 MOL      0.063335
     32 H13        -0.8330    5.8500    2.3130 hc        1 MOL      0.077163
     33 H14         0.1190    4.6720    1.6060 hc        1 MOL      0.077163
     34 H15         0.4220    6.4310    1.2080 hc        1 MOL      0.077163
     35 H16         0.6380    6.4430   -1.5450 hc        1 MOL      0.106046
     36 H17         1.4660    5.0510   -0.8670 hc        1 MOL      0.106046
     37 H18         0.6900    4.7930   -2.4360 hc        1 MOL      0.106046
     38 N3         -4.1600    3.9970   -1.0600 n         1 MOL     -0.389339
     39 C13        -5.0220    3.8320   -2.2960 c3        1 MOL      0.113910
     40 C14        -6.2960    3.0000   -2.0800 c         1 MOL      0.282195
     41 O6         -7.2110    2.9830   -2.9930 o         1 MOL     -0.497040
     42 C15        -4.1540    3.1460   -3.3760 c3        1 MOL     -0.246250
     43 C16        -3.4400    1.8950   -2.9440 c         1 MOL      0.690187
     44 O7         -4.0300    0.7720   -2.9090 o         1 MOL     -0.668106
     45 O8         -2.2350    1.9960   -2.5940 o         1 MOL     -0.668106
     46 H19        -3.7370    3.1180   -0.7740 hn        1 MOL      0.085267
     47 H20        -5.3630    4.7640   -2.7390 h1        1 MOL      0.095698
     48 H21        -3.4640    3.9380   -3.6300 hc        1 MOL      0.070538
     49 H22        -4.7940    2.9250   -4.2340 hc        1 MOL      0.070538
     50 N4         -6.4940    2.2250   -0.9540 n         1 MOL     -0.069938
     51 C17        -7.7000    1.5690   -0.6450 c3        1 MOL     -0.140105
     52 C18        -8.0000    0.2720   -1.4090 c         1 MOL      0.552951
     53 O9         -9.0370    0.0750   -1.9950 o         1 MOL     -0.579558
     54 H23        -5.8310    2.2110   -0.1910 hn        1 MOL      0.165305
     55 H24        -8.5470    2.2380   -0.7670 h1        1 MOL      0.056609
     56 H25        -7.6500    1.3050    0.4110 h1        1 MOL      0.056609
     57 N5         -6.9910   -0.6670   -1.4220 n         1 MOL     -0.262449
     58 C19        -7.0750   -2.0860   -1.8830 c3        1 MOL     -0.044745
     59 C20        -7.0640   -3.0410   -0.6980 c         1 MOL      0.320253
     60 O10        -7.1860   -4.2330   -0.8450 o         1 MOL     -0.505934
     61 C21        -6.0070   -2.4040   -2.9890 c3        1 MOL     -0.100751
     62 C22        -4.5440   -2.2380   -2.6680 c         1 MOL      0.650583
     63 O11        -3.7090   -2.6410   -3.4980 o         1 MOL     -0.691332
     64 O12        -4.2300   -1.7980   -1.5450 o         1 MOL     -0.691332
     65 H26        -6.1280   -0.4290   -0.9590 hn        1 MOL      0.185209
     66 H27        -8.0370   -2.2040   -2.3950 h1        1 MOL      0.113447
     67 H28        -6.2990   -1.7960   -3.8500 hc        1 MOL      0.050347
     68 H29        -6.2190   -3.3700   -3.4390 hc        1 MOL      0.050347
     69 N6         -6.9380   -2.5310    0.5400 n         1 MOL     -0.069454
     70 C23        -6.9480   -3.2770    1.8530 c3        1 MOL     -0.192367
     71 C24        -5.6190   -3.9200    2.2630 c         1 MOL      0.655520
     72 O13        -5.5710   -4.9380    2.9170 o         1 MOL     -0.596198
     73 H30        -6.8430   -1.5300    0.6780 hn        1 MOL      0.118934
     74 H31        -7.7790   -3.9910    1.8080 h1        1 MOL      0.075086
     75 H32        -7.1480   -2.4420    2.5250 h1        1 MOL      0.075086
     76 N7         -4.5130   -3.3770    1.8500 n         1 MOL     -0.340292
     77 C25        -3.1820   -3.9650    1.9880 c3        1 MOL      0.004721
     78 C26        -2.0870   -2.8930    1.8650 c         1 MOL      0.630189
     79 O14        -2.2190   -1.9100    1.0970 o         1 MOL     -0.618761
     80 C27        -3.0610   -5.1340    0.9620 c3        1 MOL     -0.279754
     81 C28        -3.3580   -4.7790   -0.4570 c3        1 MOL     -0.046575
     82 C29        -2.9850   -5.7770   -1.5340 c         1 MOL      0.666571
     83 N8         -2.8580   -5.4040   -2.7600 n         1 MOL     -0.795346
     84 O15        -2.8180   -6.9620   -1.3390 o         1 MOL     -0.635508
     85 H33        -4.5950   -2.5270    1.3080 hn        1 MOL      0.136136
     86 H34        -3.2360   -4.4810    2.9510 h1        1 MOL      0.053746
     87 H35        -3.7660   -5.8830    1.3150 hc        1 MOL      0.100574
     88 H36        -2.0730   -5.5990    0.9310 hc        1 MOL      0.100574
     89 H37        -2.7410   -3.9070   -0.6440 hc        1 MOL      0.081191
     90 H38        -4.4120   -4.5430   -0.6100 hc        1 MOL      0.081191
     91 H39        -2.9360   -4.4250   -2.9940 hn        1 MOL      0.357057
     92 H40        -2.6740   -6.1040   -3.4660 hn        1 MOL      0.357057
     93 N9         -0.9220   -3.0890    2.4920 n         1 MOL     -0.434564
     94 C30         0.1980   -2.1350    2.4960 c3        1 MOL      0.043005
     95 C31         1.3820   -2.7790    1.7370 c         1 MOL      0.421304
     96 O16         2.0050   -3.7310    2.2730 o         1 MOL     -0.549987
     97 C32         0.4630   -1.8250    3.9620 c3        1 MOL      0.379650
     98 C33         1.5850   -0.9100    4.1560 c3        1 MOL     -0.436429
     99 C34        -0.7380   -1.1860    4.6450 c3        1 MOL     -0.436429
    100 H41        -0.8990   -3.8660    3.1250 hn        1 MOL      0.255338
    101 H42        -0.0460   -1.2680    1.8830 h1        1 MOL      0.108937
    102 H43         0.7540   -2.7570    4.4430 hc        1 MOL     -0.044542
    103 H44         1.9450   -0.8510    5.1840 hc        1 MOL      0.092681
    104 H45         2.3570   -1.2260    3.4580 hc        1 MOL      0.092681
    105 H46         1.4480    0.1580    3.9670 hc        1 MOL      0.092681
    106 H47        -1.6860   -1.7080    4.5160 hc        1 MOL      0.092681
    107 H48        -0.4120   -1.1420    5.6890 hc        1 MOL      0.092681
    108 H49        -0.7810   -0.1420    4.3270 hc        1 MOL      0.092681
    109 N10         1.8400   -2.2380    0.5740 n         1 MOL     -0.345888
    110 C35         3.0490   -2.7590   -0.0090 c3        1 MOL      0.332573
    111 C36         4.3210   -1.9770    0.3690 c         1 MOL      0.232516
    112 O17         4.4020   -1.0860    1.1750 o         1 MOL     -0.279257
    113 C37         2.7680   -2.7380   -1.5240 c3        1 MOL     -0.518666
    114 C38         3.1010   -1.4530   -2.2560 c         1 MOL      0.638699
    115 N11         2.2330   -0.5430   -2.4860 n         1 MOL     -0.679608
    116 O18         4.2180   -1.2370   -2.6670 o         1 MOL     -0.598440
    117 H50         1.4030   -1.4480    0.1250 hn        1 MOL      0.263481
    118 H51         3.2570   -3.7940    0.2760 h1        1 MOL      0.020320
    119 H52         1.7430   -3.0980   -1.6430 hc        1 MOL      0.155861
    120 H53         3.3800   -3.4770   -2.0320 hc        1 MOL      0.155861
    121 H54         1.3120   -0.6940   -2.1010 hn        1 MOL      0.383132
    122 H55         2.4930    0.3290   -2.9320 hn        1 MOL      0.383132
    123 N12         5.4600   -2.3560   -0.1460 n         1 MOL     -0.390089
    124 C39         6.8540   -1.9020    0.2800 c3        1 MOL      0.169846
    125 C40         6.9920   -0.3900    0.0270 c         1 MOL      0.431205
    126 O19         7.6380    0.2460    0.8320 o         1 MOL     -0.527773
    127 C41         7.8910   -2.7710   -0.3210 c3        1 MOL     -0.257015
    128 C42         9.3040   -2.2500   -0.2580 ca        1 MOL      0.126127
    129 C43        10.1320   -2.7200    0.7500 ca        1 MOL     -0.229725
    130 C44         9.8070   -1.4200   -1.3060 ca        1 MOL     -0.229725
    131 C45        11.4760   -2.2710    0.8730 ca        1 MOL     -0.193973
    132 C46        11.1580   -1.0440   -1.2010 ca        1 MOL     -0.193973
    133 C47        12.0460   -1.4200   -0.1320 ca        1 MOL      0.281255
    134 O20        13.3720   -1.1300   -0.0980 oh        1 MOL     -0.502860
    135 H56         5.4180   -3.0490   -0.8790 hn        1 MOL      0.223863
    136 H57         6.9530   -2.0720    1.3630 h1        1 MOL      0.055648
    137 H58         7.7360   -2.9900   -1.3820 hc        1 MOL      0.096156
    138 H59         7.8510   -3.7410    0.1620 hc        1 MOL      0.096156
    139 H60         9.7250   -3.3440    1.5270 ha        1 MOL      0.158070
    140 H61         9.3140   -1.0450   -2.1900 ha        1 MOL      0.158070
    141 H62        12.0270   -2.5720    1.7550 ha        1 MOL      0.116546
    142 H63        11.7570   -0.4840   -1.9070 ha        1 MOL      0.116546
    143 H64        13.5600   -0.6220   -0.8870 ho        1 MOL      0.374112
    144 N13         6.3520    0.2250   -0.9930 n         1 MOL     -0.162475
    145 C48         6.3590    1.7180   -1.1420 c3        1 MOL     -0.065870
    146 C49         5.4290    2.4110   -0.1000 c         1 MOL      0.291556
    147 O21         5.5810    3.6410    0.1360 o         1 MOL     -0.512473
    148 C50         6.0680    2.1010   -2.5720 c3        1 MOL      0.101525
    149 C51         7.0780    1.6760   -3.6190 c3        1 MOL     -0.170060
    150 C52         6.4690    2.0060   -4.9830 c         1 MOL      0.684119
    151 O22         5.8940    1.0710   -5.6100 o         1 MOL     -0.733668
    152 O23         6.5900    3.1250   -5.4670 o         1 MOL     -0.733668
    153 H65         5.9260   -0.3870   -1.6730 hn        1 MOL      0.203483
    154 H66         7.3570    2.0950   -0.9080 h1        1 MOL      0.091515
    155 H67         6.0360    3.1840   -2.5720 hc        1 MOL      0.001637
    156 H68         5.1050    1.6370   -2.7770 hc        1 MOL      0.001637
    157 H69         7.3240    0.6210   -3.5230 hc        1 MOL      0.004806
    158 H70         7.9550    2.3200   -3.5380 hc        1 MOL      0.004806
    159 N14         4.4470    1.7250    0.4840 n         1 MOL     -0.108908
    160 C53         3.5830    2.2510    1.5970 c3        1 MOL     -0.021109
    161 C54         4.2860    2.0960    2.9440 c         1 MOL      0.544819
    162 O24         4.2660    3.0040    3.7460 o         1 MOL     -0.577985
    163 C55         2.2270    1.4520    1.5150 c3        1 MOL      0.251975
    164 C56         1.4970    1.6580    0.2080 c3        1 MOL      0.146698
    165 C57         0.1610    0.8280    0.0630 c         1 MOL      0.773545
    166 O25        -0.9210    1.2530    0.5180 o         1 MOL     -0.794155
    167 O26         0.1560   -0.1900   -0.6310 o         1 MOL     -0.794155
    168 H71         4.4340    0.7210    0.4070 hn        1 MOL      0.162522
    169 H72         3.2990    3.2870    1.4230 h1        1 MOL      0.059263
    170 H73         1.6020    1.8180    2.3300 hc        1 MOL     -0.075150
    171 H74         2.4010    0.4100    1.7760 hc        1 MOL     -0.075150
    172 H75         2.2020    1.3540   -0.5740 hc        1 MOL     -0.108638
    173 H76         1.2160    2.7060    0.1050 hc        1 MOL     -0.108638
    174 N15         4.9910    0.9720    3.2090 n         1 MOL     -0.158345
    175 C58         5.9970    0.8970    4.1780 c3        1 MOL     -0.377927
    176 H77         6.0200    1.8240    4.7500 h1        1 MOL      0.120072
    177 H78         5.7940    0.0620    4.8480 h1        1 MOL      0.120072
    178 H79         6.9600    0.7470    3.6910 h1        1 MOL      0.120072
    179 H80         4.8510    0.2050    2.5690 hn        1 MOL      0.126896
    180 Ca1        -2.3580   -0.2020   -1.0490 Ca        1 MOL      1.750767
    181 O27        -0.7030    0.1810   -3.6070 oh        1 MOL     -0.894072
    182 H81        -0.5500    0.1400   -4.5540 ho        1 MOL      0.409485
    183 H82        -1.0040    1.0740   -3.4590 ho        1 MOL      0.409485
    184 O28        -1.3830   -2.3120   -2.5760 oh        1 MOL     -0.894072
    185 H83        -2.0720   -2.7740   -3.0570 ho        1 MOL      0.409485
    186 H84        -0.8270   -1.9360   -3.2630 ho        1 MOL      0.409485
@<TRIPOS>BOND
     1    1    2 1   
     2    1    4 1   
     3    1    5 1   
     4    1    6 1   
     5    2    3 2   
     6    2    7 1   
     7    7    8 1   
     8    7   15 1   
     9    8    9 1   
    10    8   11 1   
    11    8   16 1   
    12    9   10 2   
    13    9   19 1   
    14   11   12 1   
    15   11   17 1   
    16   11   18 1   
    17   12   13 1   
    18   12   14 1   
    19   19   20 1   
    20   19   27 1   
    21   20   21 1   
    22   20   23 1   
    23   20   28 1   
    24   21   22 2   
    25   21   38 1   
    26   23   24 1   
    27   23   25 1   
    28   23   29 1   
    29   24   26 1   
    30   24   30 1   
    31   24   31 1   
    32   25   32 1   
    33   25   33 1   
    34   25   34 1   
    35   26   35 1   
    36   26   36 1   
    37   26   37 1   
    38   38   39 1   
    39   38   46 1   
    40   39   40 1   
    41   39   42 1   
    42   39   47 1   
    43   40   41 2   
    44   40   50 1   
    45   42   43 1   
    46   42   48 1   
    47   42   49 1   
    48   43   44 1   
    49   43   45 1   
    50   50   51 1   
    51   50   54 1   
    52   51   52 1   
    53   51   55 1   
    54   51   56 1   
    55   52   53 2   
    56   52   57 1   
    57   57   58 1   
    58   57   65 1   
    59   58   59 1   
    60   58   61 1   
    61   58   66 1   
    62   59   60 2   
    63   59   69 1   
    64   61   62 1   
    65   61   67 1   
    66   61   68 1   
    67   62   63 1   
    68   62   64 1   
    69   69   70 1   
    70   69   73 1   
    71   70   71 1   
    72   70   74 1   
    73   70   75 1   
    74   71   72 2   
    75   71   76 1   
    76   76   77 1   
    77   76   85 1   
    78   77   78 1   
    79   77   80 1   
    80   77   86 1   
    81   78   79 2   
    82   78   93 1   
    83   80   81 1   
    84   80   87 1   
    85   80   88 1   
    86   81   82 1   
    87   81   89 1   
    88   81   90 1   
    89   82   83 1   
    90   82   84 2   
    91   83   91 1   
    92   83   92 1   
    93   93   94 1   
    94   93  100 1   
    95   94   95 1   
    96   94   97 1   
    97   94  101 1   
    98   95   96 2   
    99   95  109 1   
   100   97   98 1   
   101   97   99 1   
   102   97  102 1   
   103   98  103 1   
   104   98  104 1   
   105   98  105 1   
   106   99  106 1   
   107   99  107 1   
   108   99  108 1   
   109  109  110 1   
   110  109  117 1   
   111  110  111 1   
   112  110  113 1   
   113  110  118 1   
   114  111  112 2   
   115  111  123 1   
   116  113  114 1   
   117  113  119 1   
   118  113  120 1   
   119  114  115 1   
   120  114  116 2   
   121  115  121 1   
   122  115  122 1   
   123  123  124 1   
   124  123  135 1   
   125  124  125 1   
   126  124  127 1   
   127  124  136 1   
   128  125  126 2   
   129  125  144 1   
   130  127  128 1   
   131  127  137 1   
   132  127  138 1   
   133  128  129 ar  
   134  128  130 ar  
   135  129  131 ar  
   136  129  139 1   
   137  130  132 ar  
   138  130  140 1   
   139  131  133 ar  
   140  131  141 1   
   141  132  133 ar  
   142  132  142 1   
   143  133  134 1   
   144  134  143 1   
   145  144  145 1   
   146  144  153 1   
   147  145  146 1   
   148  145  148 1   
   149  145  154 1   
   150  146  147 2   
   151  146  159 1   
   152  148  149 1   
   153  148  155 1   
   154  148  156 1   
   155  149  150 1   
   156  149  157 1   
   157  149  158 1   
   158  150  151 1   
   159  150  152 1   
   160  159  160 1   
   161  159  168 1   
   162  160  161 1   
   163  160  163 1   
   164  160  169 1   
   165  161  162 2   
   166  161  174 1   
   167  163  164 1   
   168  163  170 1   
   169  163  171 1   
   170  164  165 1   
   171  164  172 1   
   172  164  173 1   
   173  165  166 1   
   174  165  167 1   
   175  174  175 1   
   176  174  179 1   
   177  175  176 1   
   178  175  177 1   
   179  175  178 1   
   180  181  182 1   
   181  181  183 1   
   182  184  185 1   
   183  184  186 1   
@<TRIPOS>SUBSTRUCTURE
     1 MOL         1 TEMP              0 ****  ****    0 ROOT
