@<TRIPOS>MOLECULE
MOL
  175   173     1     0     0
SMALL
resp


@<TRIPOS>ATOM
      1 C1          0.0230   -3.9180    5.6270 c3        1 MOL     -0.398271
      2 C2          0.5630   -3.8060    4.2160 c         1 MOL      0.719066
      3 O1         -0.1380   -4.1570    3.2780 o         1 MOL     -0.560708
      4 H1          0.6980   -3.4090    6.3150 hc        1 MOL      0.092707
      5 H2         -0.9620   -3.4550    5.6780 hc        1 MOL      0.092707
      6 H3         -0.0530   -4.9690    5.9050 hc        1 MOL      0.092707
      7 N1          1.7880   -3.3920    4.0900 n         1 MOL     -0.569307
      8 C3          2.4790   -3.1880    2.8340 c3        1 MOL      0.052364
      9 C4          2.5840   -4.3560    1.9390 c         1 MOL      0.688329
     10 O2          3.0470   -5.3720    2.4480 o         1 MOL     -0.621923
     11 C5          3.8370   -2.6030    2.9300 c3        1 MOL     -0.046784
     12 C6          4.3860   -2.1660    1.6080 c         1 MOL      0.530267
     13 O3          5.6320   -2.1130    1.4770 o         1 MOL     -0.610729
     14 O4          3.6170   -1.8880    0.6140 o         1 MOL     -0.610729
     15 H4          2.2140   -3.0280    4.9360 hn        1 MOL      0.312271
     16 H5          1.8910   -2.4630    2.2660 h1        1 MOL      0.029046
     17 H6          4.5560   -3.2010    3.4930 hc        1 MOL      0.005250
     18 H7          3.7520   -1.6970    3.5410 hc        1 MOL      0.005250
     19 N2          2.2810   -4.2750    0.6630 n         1 MOL     -0.487864
     20 C7          2.2800   -5.3310   -0.3490 c3        1 MOL      0.133264
     21 C8          3.1080   -4.9430   -1.6420 c         1 MOL      0.596770
     22 O5          2.9500   -5.5400   -2.7160 o         1 MOL     -0.550061
     23 C9          0.8870   -5.7820   -0.6530 c3        1 MOL     -0.067466
     24 H8          1.9000   -3.4080    0.3190 hn        1 MOL      0.342072
     25 H9          2.8610   -6.1340    0.1080 h1        1 MOL      0.015363
     26 H10         0.4530   -6.3330    0.1710 hc        1 MOL      0.010983
     27 H11         0.1590   -5.0210   -0.9550 hc        1 MOL      0.010983
     28 H12         0.9630   -6.4840   -1.4900 hc        1 MOL      0.010983
     29 N3          3.9880   -3.9070   -1.5210 n         1 MOL     -0.674312
     30 C10         4.7630   -3.4550   -2.6550 c3        1 MOL      0.263107
     31 C11         6.1240   -2.7140   -2.3330 c         1 MOL      0.394488
     32 O6          6.9090   -2.6570   -3.2200 o         1 MOL     -0.540814
     33 C12         3.9860   -2.5400   -3.6180 c3        1 MOL     -0.406017
     34 C13         3.2580   -1.4800   -2.7820 c         1 MOL      0.830231
     35 O7          2.0160   -1.5540   -2.6620 o         1 MOL     -0.744996
     36 O8          3.8740   -0.6210   -2.2050 o         1 MOL     -0.744996
     37 H13         4.0090   -3.3180   -0.7100 hn        1 MOL      0.388541
     38 H14         5.1890   -4.3100   -3.1720 h1        1 MOL      0.036403
     39 H15         3.3500   -3.2220   -4.1890 hc        1 MOL      0.102613
     40 H16         4.6010   -1.9030   -4.2640 hc        1 MOL      0.102613
     41 N4          6.2610   -2.0890   -1.1180 n         1 MOL     -0.188162
     42 C14         7.4540   -1.2640   -0.8750 c3        1 MOL     -0.152697
     43 C15         7.4210    0.1630   -1.3580 c         1 MOL      0.609123
     44 O9          8.4500    0.7750   -1.2870 o         1 MOL     -0.644693
     45 H17         5.6030   -2.2020   -0.3590 hn        1 MOL      0.127704
     46 H18         8.3650   -1.6650   -1.3280 h1        1 MOL      0.084501
     47 H19         7.6680   -1.2040    0.1860 h1        1 MOL      0.084501
     48 N5          6.2550    0.7380   -1.7060 n         1 MOL     -0.328950
     49 C16         6.1830    2.1440   -2.1470 c3        1 MOL      0.098102
     50 C17         6.0800    3.1650   -0.9510 c         1 MOL      0.451249
     51 O10         5.8770    4.3380   -1.1490 o         1 MOL     -0.488644
     52 C18         5.0070    2.1950   -3.1850 c3        1 MOL     -0.370459
     53 C19         3.5640    2.3040   -2.6180 c         1 MOL      0.673131
     54 N6          2.5520    2.3980   -3.4310 n         1 MOL     -0.637219
     55 O11         3.4060    2.1720   -1.3930 o         1 MOL     -0.555173
     56 H20         5.4660    0.1140   -1.7590 hn        1 MOL      0.214258
     57 H21         7.1410    2.4360   -2.5840 h1        1 MOL      0.081391
     58 H22         5.0510    1.2670   -3.7640 hc        1 MOL      0.103122
     59 H23         5.2640    3.0570   -3.7970 hc        1 MOL      0.103122
     60 H24         2.6860    2.2760   -4.4210 hn        1 MOL      0.331949
     61 H25         1.6240    2.2760   -3.0440 hn        1 MOL      0.331949
     62 N7          6.3250    2.6600    0.2690 n         1 MOL     -0.337995
     63 C20         6.1680    3.4680    1.4800 c3        1 MOL     -0.188742
     64 C21         4.8370    4.0870    1.7660 c         1 MOL      0.494288
     65 O12         4.7380    4.8800    2.7030 o         1 MOL     -0.587517
     66 H26         6.5650    1.6920    0.4140 hn        1 MOL      0.304247
     67 H27         6.8420    4.3260    1.4600 h1        1 MOL      0.109851
     68 H28         6.4470    2.8490    2.3390 h1        1 MOL      0.109851
     69 N8          3.7430    3.7280    1.0800 n         1 MOL     -0.042743
     70 C22         2.4500    4.4310    1.1800 c3        1 MOL     -0.164707
     71 C23         1.2480    3.4580    1.2510 c         1 MOL      0.427865
     72 O13         1.3690    2.3540    0.6620 o         1 MOL     -0.480757
     73 C24         2.2240    5.5380    0.1710 c3        1 MOL      0.593665
     74 C25         3.2930    6.6170    0.3950 c3        1 MOL     -0.340862
     75 O14         2.2970    5.0540   -1.1840 oh        1 MOL     -0.649296
     76 H29         3.7560    3.0050    0.3640 hn        1 MOL      0.038806
     77 H30         2.4180    4.9780    2.1200 h1        1 MOL      0.041202
     78 H31         1.2750    5.9740    0.4580 h1        1 MOL     -0.096454
     79 H32         2.0540    4.1340   -1.2810 ho        1 MOL      0.356157
     80 H33         2.9500    7.5200   -0.1050 hc        1 MOL      0.079322
     81 H34         3.4310    6.8740    1.4450 hc        1 MOL      0.079322
     82 H35         4.2450    6.2730   -0.0170 hc        1 MOL      0.079322
     83 N9          0.1400    3.7820    1.9230 n         1 MOL     -0.255591
     84 C26        -1.0750    2.9220    1.9450 c3        1 MOL     -0.336524
     85 C27        -1.9450    3.1710    0.6880 c         1 MOL      0.577995
     86 O15        -2.5080    4.2500    0.4340 o         1 MOL     -0.576295
     87 C28        -1.9300    2.9790    3.2240 c3        1 MOL      0.266746
     88 C29        -1.2040    2.9280    4.6020 c3        1 MOL      0.087152
     89 C30        -2.9700    1.8510    3.1880 c3        1 MOL     -0.188113
     90 C31        -1.5080    4.0390    5.5720 c3        1 MOL     -0.100598
     91 H36         0.0300    4.6520    2.4170 hn        1 MOL      0.261376
     92 H37        -0.6270    1.9330    1.8060 h1        1 MOL      0.147804
     93 H38        -2.5900    3.8460    3.2030 hc        1 MOL     -0.025905
     94 H39        -0.1100    2.9520    4.5020 hc        1 MOL     -0.030743
     95 H40        -1.4210    1.9810    5.0890 hc        1 MOL     -0.030743
     96 H41        -3.7040    2.2110    3.9150 hc        1 MOL      0.033406
     97 H42        -3.4030    1.9040    2.1870 hc        1 MOL      0.033406
     98 H43        -2.4950    0.9270    3.4980 hc        1 MOL      0.033406
     99 H44        -2.5980    4.0010    5.6300 hc        1 MOL      0.011444
    100 H45        -1.0840    3.9090    6.5660 hc        1 MOL      0.011444
    101 H46        -1.1700    5.0150    5.2070 hc        1 MOL      0.011444
    102 N10        -1.9370    2.1510   -0.2120 n         1 MOL     -0.225328
    103 C32        -2.7830    2.0390   -1.4120 c3        1 MOL      0.045428
    104 C33        -4.1700    1.5190   -0.9920 c         1 MOL      0.491680
    105 O16        -4.4510    0.9410    0.0700 o         1 MOL     -0.373347
    106 C34        -2.0530    1.0910   -2.4570 c3        1 MOL     -0.287949
    107 C35        -0.5670    1.5130   -2.7270 c         1 MOL      0.677291
    108 O17        -0.3330    2.3250   -3.6120 o         1 MOL     -0.648394
    109 O18         0.3850    0.9450   -2.0610 o         1 MOL     -0.648394
    110 H47        -1.4370    1.3330    0.1110 hn        1 MOL      0.109364
    111 H48        -2.9190    3.0350   -1.8240 h1        1 MOL      0.091172
    112 H49        -2.7380    1.1160   -3.3070 hc        1 MOL      0.095426
    113 H50        -2.1140    0.0530   -2.1260 hc        1 MOL      0.095426
    114 N11        -5.2330    1.7760   -1.8030 n         1 MOL     -0.747342
    115 C36        -6.6210    1.3190   -1.4140 c3        1 MOL      0.515229
    116 C37        -6.7030   -0.2220   -1.1380 c         1 MOL      0.204803
    117 O19        -7.3520   -0.5890   -0.1840 o         1 MOL     -0.449363
    118 C38        -7.7210    1.7450   -2.4640 c3        1 MOL     -0.331839
    119 C39        -9.1670    1.4300   -1.9670 ca        1 MOL      0.109388
    120 C40       -10.0110    0.5770   -2.7610 ca        1 MOL     -0.148459
    121 C41        -9.6550    2.0530   -0.7900 ca        1 MOL     -0.148459
    122 C42       -11.3370    0.3900   -2.3590 ca        1 MOL     -0.131681
    123 C43       -11.0310    1.9440   -0.4880 ca        1 MOL     -0.131681
    124 C44       -11.8140    1.0840   -1.2470 ca        1 MOL     -0.079398
    125 H51        -5.0150    2.1420   -2.7230 hn        1 MOL      0.341582
    126 H52        -6.9520    1.6950   -0.4450 h1        1 MOL      0.023707
    127 H53        -7.4570    1.2980   -3.4150 hc        1 MOL      0.086098
    128 H54        -7.6290    2.8340   -2.4930 hc        1 MOL      0.086098
    129 H55        -9.6630   -0.0180   -3.5890 ha        1 MOL      0.123725
    130 H56        -9.0190    2.7850   -0.3020 ha        1 MOL      0.123725
    131 H57       -12.0070   -0.2220   -2.9420 ha        1 MOL      0.115205
    132 H58       -11.4110    2.5030    0.3590 ha        1 MOL      0.115205
    133 H59       -12.8610    0.9110   -1.0560 ha        1 MOL      0.081693
    134 N12        -6.0190   -1.0630   -1.8910 n         1 MOL     -0.019273
    135 C45        -6.0840   -2.4620   -1.4960 c3        1 MOL      0.174710
    136 C46        -5.6040   -2.7750   -0.0300 c         1 MOL      0.191346
    137 O20        -6.1760   -3.6600    0.6360 o         1 MOL     -0.500503
    138 C47        -5.1480   -3.1190   -2.4530 c3        1 MOL     -0.020458
    139 C48        -5.3540   -2.4440   -3.7460 c3        1 MOL     -0.235470
    140 C49        -5.5260   -0.9940   -3.2580 c3        1 MOL      0.065411
    141 H60        -7.0630   -2.9250   -1.5710 h1        1 MOL      0.014482
    142 H61        -4.1020   -2.9950   -2.1360 hc        1 MOL      0.036886
    143 H62        -5.4180   -4.1730   -2.4070 hc        1 MOL      0.036886
    144 H63        -4.4850   -2.5340   -4.4060 hc        1 MOL      0.083929
    145 H64        -6.3760   -2.5890   -4.1110 hc        1 MOL      0.083929
    146 H65        -4.5440   -0.5170   -3.2260 h1        1 MOL      0.004143
    147 H66        -6.2370   -0.4320   -3.8750 h1        1 MOL      0.004143
    148 N13        -4.5710   -2.1630    0.4340 n         1 MOL     -0.023807
    149 C50        -3.8970   -2.4190    1.7540 c3        1 MOL     -0.300996
    150 C51        -4.6710   -1.7120    2.8530 c         1 MOL      0.515551
    151 O21        -4.7880   -2.0490    4.0360 o         1 MOL     -0.575666
    152 C52        -2.4110   -1.9410    1.7020 c3        1 MOL      0.071873
    153 C53        -1.5770   -2.4850    0.5860 c3        1 MOL     -0.032167
    154 C54        -0.3610   -1.5760    0.4290 c         1 MOL      0.536990
    155 O22         0.6800   -2.0690   -0.0590 o         1 MOL     -0.642181
    156 O23        -0.3440   -0.3730    0.7730 o         1 MOL     -0.642181
    157 H67        -4.1860   -1.4060   -0.1080 hn        1 MOL      0.150092
    158 H68        -3.8110   -3.4930    1.9000 h1        1 MOL      0.158349
    159 H69        -1.8960   -2.0850    2.6510 hc        1 MOL      0.015808
    160 H70        -2.5610   -0.8740    1.5630 hc        1 MOL      0.015808
    161 H71        -2.1630   -2.3760   -0.3330 hc        1 MOL      0.039883
    162 H72        -1.2780   -3.5160    0.7570 hc        1 MOL      0.039883
    163 N14        -5.2710   -0.5480    2.5150 n         1 MOL      0.044612
    164 C55        -6.2330    0.1220    3.3230 c3        1 MOL     -0.132261
    165 H73        -5.7410    0.5400    4.2010 h1        1 MOL      0.047882
    166 H74        -6.6940    0.9260    2.7490 h1        1 MOL      0.047882
    167 H75        -6.9990   -0.5860    3.6400 h1        1 MOL      0.047882
    168 H76        -5.1370   -0.2670    1.5560 hn        1 MOL     -0.000560
    169 Ca1         2.1420    0.0210   -0.3490 Ca        1 MOL      1.656275
    170 O24         1.7640   -0.0150    2.7380 oh        1 MOL     -0.803930
    171 H77         0.8390    0.2080    2.6260 ho        1 MOL      0.390175
    172 H78         1.8070   -0.4870    3.5670 ho        1 MOL      0.390175
    173 O25         4.0990    0.8240    1.6870 oh        1 MOL     -0.803930
    174 H79         4.9260    0.4240    1.9510 ho        1 MOL      0.390175
    175 H80         3.4870    0.5760    2.3720 ho        1 MOL      0.390175
@<TRIPOS>BOND
     1    1    2 1   
     2    1    4 1   
     3    1    5 1   
     4    1    6 1   
     5    2    3 2   
     6    2    7 1   
     7    7    8 1   
     8    7   15 1   
     9    8    9 1   
    10    8   11 1   
    11    8   16 1   
    12    9   10 2   
    13    9   19 1   
    14   11   12 1   
    15   11   17 1   
    16   11   18 1   
    17   12   13 1   
    18   12   14 1   
    19   19   20 1   
    20   19   24 1   
    21   20   21 1   
    22   20   23 1   
    23   20   25 1   
    24   21   22 2   
    25   21   29 1   
    26   23   26 1   
    27   23   27 1   
    28   23   28 1   
    29   29   30 1   
    30   29   37 1   
    31   30   31 1   
    32   30   33 1   
    33   30   38 1   
    34   31   32 2   
    35   31   41 1   
    36   33   34 1   
    37   33   39 1   
    38   33   40 1   
    39   34   35 1   
    40   34   36 1   
    41   41   42 1   
    42   41   45 1   
    43   42   43 1   
    44   42   46 1   
    45   42   47 1   
    46   43   44 2   
    47   43   48 1   
    48   48   49 1   
    49   48   56 1   
    50   49   50 1   
    51   49   52 1   
    52   49   57 1   
    53   50   51 2   
    54   50   62 1   
    55   52   53 1   
    56   52   58 1   
    57   52   59 1   
    58   53   54 1   
    59   53   55 2   
    60   54   60 1   
    61   54   61 1   
    62   62   63 1   
    63   62   66 1   
    64   63   64 1   
    65   63   67 1   
    66   63   68 1   
    67   64   65 2   
    68   64   69 1   
    69   69   70 1   
    70   69   76 1   
    71   70   71 1   
    72   70   73 1   
    73   70   77 1   
    74   71   72 2   
    75   71   83 1   
    76   73   74 1   
    77   73   75 1   
    78   73   78 1   
    79   74   80 1   
    80   74   81 1   
    81   74   82 1   
    82   75   79 1   
    83   83   84 1   
    84   83   91 1   
    85   84   85 1   
    86   84   87 1   
    87   84   92 1   
    88   85   86 2   
    89   85  102 1   
    90   87   88 1   
    91   87   89 1   
    92   87   93 1   
    93   88   90 1   
    94   88   94 1   
    95   88   95 1   
    96   89   96 1   
    97   89   97 1   
    98   89   98 1   
    99   90   99 1   
   100   90  100 1   
   101   90  101 1   
   102  102  103 1   
   103  102  110 1   
   104  103  104 1   
   105  103  106 1   
   106  103  111 1   
   107  104  105 2   
   108  104  114 1   
   109  106  107 1   
   110  106  112 1   
   111  106  113 1   
   112  107  108 1   
   113  107  109 1   
   114  114  115 1   
   115  114  125 1   
   116  115  116 1   
   117  115  118 1   
   118  115  126 1   
   119  116  117 2   
   120  116  134 1   
   121  118  119 1   
   122  118  127 1   
   123  118  128 1   
   124  119  120 ar  
   125  119  121 ar  
   126  120  122 ar  
   127  120  129 1   
   128  121  123 ar  
   129  121  130 1   
   130  122  124 ar  
   131  122  131 1   
   132  123  124 ar  
   133  123  132 1   
   134  124  133 1   
   135  134  135 1   
   136  134  140 1   
   137  135  136 1   
   138  135  138 1   
   139  135  141 1   
   140  136  137 2   
   141  136  148 1   
   142  138  139 1   
   143  138  142 1   
   144  138  143 1   
   145  139  140 1   
   146  139  144 1   
   147  139  145 1   
   148  140  146 1   
   149  140  147 1   
   150  148  149 1   
   151  148  157 1   
   152  149  150 1   
   153  149  152 1   
   154  149  158 1   
   155  150  151 2   
   156  150  163 1   
   157  152  153 1   
   158  152  159 1   
   159  152  160 1   
   160  153  154 1   
   161  153  161 1   
   162  153  162 1   
   163  154  155 1   
   164  154  156 1   
   165  163  164 1   
   166  163  168 1   
   167  164  165 1   
   168  164  166 1   
   169  164  167 1   
   170  170  171 1   
   171  170  172 1   
   172  173  174 1   
   173  173  175 1   
@<TRIPOS>SUBSTRUCTURE
     1 MOL         1 TEMP              0 ****  ****    0 ROOT
