@<TRIPOS>MOLECULE
MOL
  175   173     1     0     0
SMALL
resp


@<TRIPOS>ATOM
      1 C1         -0.5140   -3.6740    5.3140 c3        1 MOL     -0.386514
      2 C2          0.1900   -3.6450    3.9340 c         1 MOL      0.702051
      3 O1         -0.4650   -3.6010    2.8840 o         1 MOL     -0.533097
      4 H1         -1.3520   -2.9770    5.3080 hc        1 MOL      0.098216
      5 H2         -0.8810   -4.6800    5.5150 hc        1 MOL      0.098216
      6 H3          0.1930   -3.3830    6.0900 hc        1 MOL      0.098216
      7 N1          1.5350   -3.5800    3.8630 n         1 MOL     -0.606537
      8 C3          2.3090   -3.4030    2.6380 c3        1 MOL      0.217338
      9 C4          2.4850   -4.6040    1.7070 c         1 MOL      0.437158
     10 O2          2.7610   -5.7310    2.2170 o         1 MOL     -0.571362
     11 C5          3.6520   -2.8560    2.9710 c3        1 MOL     -0.257401
     12 C6          4.5620   -2.4960    1.7610 c         1 MOL      0.687255
     13 O3          5.7470   -2.7850    1.7140 o         1 MOL     -0.636140
     14 O4          4.0570   -1.7120    0.9270 o         1 MOL     -0.636140
     15 H4          2.1010   -3.5880    4.7080 hn        1 MOL      0.310862
     16 H5          1.7230   -2.7210    2.0130 h1        1 MOL      0.033567
     17 H6          4.2470   -3.6220    3.4610 hc        1 MOL      0.041970
     18 H7          3.5520   -1.9960    3.6390 hc        1 MOL      0.041970
     19 N2          2.5720   -4.4160    0.3950 n         1 MOL     -0.267925
     20 C7          2.9030   -5.4500   -0.5890 c3        1 MOL      0.292502
     21 C8          3.8000   -4.9890   -1.7630 c         1 MOL      0.482490
     22 O5          3.7140   -5.5480   -2.8540 o         1 MOL     -0.528544
     23 C9          1.5240   -6.0970   -0.9780 c3        1 MOL     -0.239553
     24 H8          2.1970   -3.5630   -0.0010 hn        1 MOL      0.235895
     25 H9          3.4600   -6.2720   -0.1450 h1        1 MOL     -0.011768
     26 H10         0.7970   -5.3030   -1.1500 hc        1 MOL      0.050316
     27 H11         1.6980   -6.6690   -1.8880 hc        1 MOL      0.050316
     28 H12         1.1010   -6.6550   -0.1440 hc        1 MOL      0.050316
     29 N3          4.6160   -3.9000   -1.5350 n         1 MOL     -0.479365
     30 C10         5.4060   -3.2860   -2.5550 c3        1 MOL      0.196457
     31 C11         6.5560   -2.4200   -2.0280 c         1 MOL      0.345593
     32 O6          7.5000   -2.3210   -2.8010 o         1 MOL     -0.566534
     33 C12         4.4800   -2.3660   -3.4230 c3        1 MOL     -0.089707
     34 C13         3.5610   -1.4000   -2.7060 c         1 MOL      0.657312
     35 O7          2.3690   -1.2600   -3.0000 o         1 MOL     -0.673290
     36 O8          4.0410   -0.7690   -1.7610 o         1 MOL     -0.673290
     37 H13         4.5200   -3.4590   -0.6360 hn        1 MOL      0.158874
     38 H14         5.7740   -3.9570   -3.3220 h1        1 MOL      0.044726
     39 H15         3.8100   -2.9110   -4.0780 hc        1 MOL      0.011822
     40 H16         5.1280   -1.7800   -4.0830 hc        1 MOL      0.011822
     41 N4          6.5470   -1.8690   -0.8190 n         1 MOL     -0.091600
     42 C14         7.5680   -0.9120   -0.3640 c3        1 MOL     -0.265003
     43 C15         7.3280    0.5160   -0.7330 c         1 MOL      0.469256
     44 O9          8.1350    1.3610   -0.3170 o         1 MOL     -0.595548
     45 H17         5.7540   -1.9610   -0.2050 hn        1 MOL      0.168528
     46 H18         8.5410   -1.2760   -0.6810 h1        1 MOL      0.128507
     47 H19         7.6210   -0.8630    0.7260 h1        1 MOL      0.128507
     48 N5          6.2470    0.9470   -1.4400 n         1 MOL     -0.138661
     49 C16         6.1900    2.2660   -2.0390 c3        1 MOL      0.046425
     50 C17         6.0790    3.4220   -1.0360 c         1 MOL      0.472106
     51 O10         6.5480    4.5630   -1.3910 o         1 MOL     -0.583974
     52 C18         5.0260    2.1910   -3.0480 c3        1 MOL     -0.345908
     53 C19         3.6150    2.0560   -2.4930 c         1 MOL      0.566479
     54 N6          2.5980    1.8840   -3.2990 n         1 MOL     -0.617081
     55 O11         3.4150    2.0690   -1.2640 o         1 MOL     -0.492244
     56 H20         5.4750    0.2860   -1.4600 hn        1 MOL      0.135837
     57 H21         7.1560    2.3710   -2.5250 h1        1 MOL      0.078807
     58 H22         5.2700    1.3460   -3.6860 hc        1 MOL      0.097918
     59 H23         5.0040    3.1230   -3.6120 hc        1 MOL      0.097918
     60 H24         2.8480    1.7090   -4.2610 hn        1 MOL      0.328791
     61 H25         1.6640    1.7590   -2.9170 hn        1 MOL      0.328791
     62 N7          5.6440    3.1870    0.2010 n         1 MOL     -0.132887
     63 C20         5.7660    4.1130    1.2600 c3        1 MOL     -0.275850
     64 C21         4.5390    4.9700    1.4460 c         1 MOL      0.631967
     65 O12         4.5760    5.9000    2.2200 o         1 MOL     -0.583029
     66 H26         5.1760    2.2980    0.2880 hn        1 MOL      0.208424
     67 H27         6.6350    4.7520    1.0720 h1        1 MOL      0.105960
     68 H28         5.8970    3.5310    2.1710 h1        1 MOL      0.105960
     69 N8          3.3940    4.4090    0.9110 n         1 MOL     -0.258846
     70 C22         1.9720    4.8370    1.1840 c3        1 MOL     -0.229507
     71 C23         1.1860    3.5590    1.4600 c         1 MOL      0.614436
     72 O13         1.4310    2.5370    0.8150 o         1 MOL     -0.540338
     73 C24         1.3310    5.5680   -0.0430 c3        1 MOL      0.471836
     74 C25         1.9570    6.9320   -0.1270 c3        1 MOL     -0.417883
     75 O14         1.4730    4.7960   -1.2170 oh        1 MOL     -0.579578
     76 H29         3.5270    3.5100    0.4670 hn        1 MOL      0.120292
     77 H30         2.0120    5.4590    2.0670 h1        1 MOL      0.098097
     78 H31         0.2680    5.5890    0.2060 h1        1 MOL     -0.024525
     79 H32         1.2850    3.8790   -0.9770 ho        1 MOL      0.341686
     80 H33         1.5700    7.3560   -1.0490 hc        1 MOL      0.107363
     81 H34         1.6200    7.5740    0.6800 hc        1 MOL      0.107363
     82 H35         3.0470    6.8430   -0.1470 hc        1 MOL      0.107363
     83 N9          0.1490    3.6360    2.2660 n         1 MOL     -0.591311
     84 C26        -0.9960    2.7770    2.1850 c3        1 MOL      0.003479
     85 C27        -1.7980    3.0490    0.8980 c         1 MOL      0.349876
     86 O15        -2.0790    4.2340    0.5360 o         1 MOL     -0.567509
     87 C28        -1.9100    2.8940    3.4340 c3        1 MOL      0.143316
     88 C29        -1.1250    2.3750    4.7130 c3        1 MOL      0.133003
     89 C30        -3.1780    2.0200    3.2880 c3        1 MOL     -0.198398
     90 C31        -1.9330    2.2250    6.0530 c3        1 MOL     -0.183635
     91 H36         0.0090    4.5270    2.7190 hn        1 MOL      0.332389
     92 H37        -0.5740    1.7750    2.1470 h1        1 MOL      0.090010
     93 H38        -2.1450    3.9290    3.6760 hc        1 MOL     -0.005647
     94 H39        -0.3570    3.1470    4.8300 hc        1 MOL     -0.043621
     95 H40        -0.6370    1.4410    4.4290 hc        1 MOL     -0.043621
     96 H41        -2.8830    0.9880    3.1100 hc        1 MOL      0.042968
     97 H42        -3.8510    2.1540    4.1270 hc        1 MOL      0.042968
     98 H43        -3.8030    2.5030    2.5350 hc        1 MOL      0.042968
     99 H44        -1.2090    1.9080    6.8050 hc        1 MOL      0.036519
    100 H45        -2.4570    3.1410    6.3290 hc        1 MOL      0.036519
    101 H46        -2.7750    1.5390    5.9470 hc        1 MOL      0.036519
    102 N10        -1.8450    1.9990    0.1410 n         1 MOL      0.000985
    103 C32        -2.6690    1.8820   -1.1320 c3        1 MOL     -0.026406
    104 C33        -4.0890    1.3990   -0.7430 c         1 MOL      0.385283
    105 O16        -4.3460    0.7920    0.2910 o         1 MOL     -0.288058
    106 C34        -2.0370    0.9430   -2.1980 c3        1 MOL     -0.212676
    107 C35        -0.6040    1.4070   -2.5420 c         1 MOL      0.699717
    108 O17        -0.3430    1.8640   -3.6600 o         1 MOL     -0.653120
    109 O18         0.3170    1.1350   -1.7210 o         1 MOL     -0.653120
    110 H47        -1.3250    1.2160    0.5070 hn        1 MOL      0.124856
    111 H48        -2.7400    2.8190   -1.6860 h1        1 MOL      0.086816
    112 H49        -2.6130    0.8830   -3.1180 hc        1 MOL      0.062258
    113 H50        -1.9460   -0.0800   -1.8320 hc        1 MOL      0.062258
    114 N11        -5.1440    1.6420   -1.5680 n         1 MOL     -0.560807
    115 C36        -6.5160    1.3110   -1.1960 c3        1 MOL      0.147293
    116 C37        -6.7710   -0.2090   -1.1460 c         1 MOL      0.423809
    117 O19        -7.5030   -0.6180   -0.2890 o         1 MOL     -0.501628
    118 C38        -7.5630    1.9760   -2.2020 c3        1 MOL     -0.072966
    119 C39        -8.9950    1.7020   -1.8900 ca        1 MOL      0.089372
    120 C40        -9.6660    0.6020   -2.4260 ca        1 MOL     -0.248097
    121 C41        -9.6820    2.5320   -0.9210 ca        1 MOL     -0.248097
    122 C42       -11.0360    0.3640   -2.0760 ca        1 MOL      0.016612
    123 C43       -11.0520    2.2760   -0.5540 ca        1 MOL      0.016612
    124 C44       -11.7290    1.2530   -1.2280 ca        1 MOL     -0.233339
    125 H51        -5.0200    2.0700   -2.4720 hn        1 MOL      0.301548
    126 H52        -6.6810    1.7750   -0.2290 h1        1 MOL      0.088043
    127 H53        -7.2900    1.6600   -3.2080 hc        1 MOL      0.044083
    128 H54        -7.4540    3.0540   -2.3000 hc        1 MOL      0.044083
    129 H55        -9.1500   -0.1120   -3.0510 ha        1 MOL      0.130253
    130 H56        -9.0760    3.3900   -0.6540 ha        1 MOL      0.130253
    131 H57       -11.6330   -0.4050   -2.5330 ha        1 MOL      0.083910
    132 H58       -11.5510    2.9450    0.1310 ha        1 MOL      0.083910
    133 H59       -12.7770    1.0470   -1.0710 ha        1 MOL      0.124538
    134 N12        -6.0980   -1.0600   -1.9210 n         1 MOL      0.073387
    135 C45        -6.2230   -2.4950   -1.7510 c3        1 MOL      0.001845
    136 C46        -5.5940   -3.1050   -0.4750 c         1 MOL      0.287913
    137 O20        -6.0310   -4.1290    0.0640 o         1 MOL     -0.488581
    138 C47        -5.5350   -3.1120   -2.9760 c3        1 MOL     -0.033900
    139 C48        -5.9260   -2.1030   -4.0100 c3        1 MOL     -0.003963
    140 C49        -5.7190   -0.7790   -3.2950 c3        1 MOL     -0.078453
    141 H60        -7.2770   -2.7380   -1.7150 h1        1 MOL      0.034410
    142 H61        -4.4500   -3.0840   -2.8440 hc        1 MOL      0.043162
    143 H62        -5.8390   -4.1390   -3.1750 hc        1 MOL      0.043162
    144 H63        -5.3750   -2.2550   -4.9450 hc        1 MOL      0.013969
    145 H64        -6.9820   -2.1110   -4.2660 hc        1 MOL      0.013969
    146 H65        -4.6640   -0.5300   -3.2350 h1        1 MOL      0.030499
    147 H66        -6.2880   -0.0430   -3.8690 h1        1 MOL      0.030499
    148 N13        -4.5400   -2.4730    0.0080 n         1 MOL     -0.095946
    149 C50        -3.9340   -2.6490    1.3500 c3        1 MOL     -0.244553
    150 C51        -4.8340   -2.0960    2.4620 c         1 MOL      0.586053
    151 O21        -4.9490   -2.7060    3.5020 o         1 MOL     -0.579694
    152 C52        -2.6200   -1.7960    1.4620 c3        1 MOL     -0.064610
    153 C53        -1.6370   -2.2350    0.3290 c3        1 MOL     -0.094557
    154 C54        -0.3140   -1.5570    0.4030 c         1 MOL      0.528852
    155 O22         0.6850   -2.0840   -0.2230 o         1 MOL     -0.672976
    156 O23        -0.0880   -0.4870    1.0080 o         1 MOL     -0.672976
    157 H67        -4.1570   -1.7090   -0.5260 hn        1 MOL      0.115654
    158 H68        -3.6150   -3.6770    1.5100 h1        1 MOL      0.159234
    159 H69        -2.1870   -1.8810    2.4590 hc        1 MOL      0.069265
    160 H70        -2.8800   -0.7480    1.3070 hc        1 MOL      0.069265
    161 H71        -2.0570   -1.9930   -0.6460 hc        1 MOL      0.072691
    162 H72        -1.5400   -3.3130    0.3510 hc        1 MOL      0.072691
    163 N14        -5.5790   -1.0240    2.2080 n         1 MOL     -0.115791
    164 C55        -6.5250   -0.4200    3.2250 c3        1 MOL     -0.235230
    165 H73        -7.0710    0.4060    2.7680 h1        1 MOL      0.095229
    166 H74        -7.2310   -1.1790    3.5610 h1        1 MOL      0.095229
    167 H75        -5.9550   -0.0500    4.0780 h1        1 MOL      0.095229
    168 H76        -5.2760   -0.4760    1.4120 hn        1 MOL      0.019160
    169 Ca1         2.1870    0.0810   -0.0070 Ca        1 MOL      1.666923
    170 O24         1.9160    0.0560    2.5440 oh        1 MOL     -0.802435
    171 H77         0.9890   -0.1000    2.3890 ho        1 MOL      0.392148
    172 H78         2.0290   -0.0060    3.4860 ho        1 MOL      0.392148
    173 O25         4.5540    0.7940    1.2440 oh        1 MOL     -0.802435
    174 H79         4.6120   -0.1620    1.2260 ho        1 MOL      0.392148
    175 H80         5.2260    1.0620    1.8710 ho        1 MOL      0.392148
@<TRIPOS>BOND
     1    1    2 1   
     2    1    4 1   
     3    1    5 1   
     4    1    6 1   
     5    2    3 2   
     6    2    7 1   
     7    7    8 1   
     8    7   15 1   
     9    8    9 1   
    10    8   11 1   
    11    8   16 1   
    12    9   10 2   
    13    9   19 1   
    14   11   12 1   
    15   11   17 1   
    16   11   18 1   
    17   12   13 1   
    18   12   14 1   
    19   19   20 1   
    20   19   24 1   
    21   20   21 1   
    22   20   23 1   
    23   20   25 1   
    24   21   22 2   
    25   21   29 1   
    26   23   26 1   
    27   23   27 1   
    28   23   28 1   
    29   29   30 1   
    30   29   37 1   
    31   30   31 1   
    32   30   33 1   
    33   30   38 1   
    34   31   32 2   
    35   31   41 1   
    36   33   34 1   
    37   33   39 1   
    38   33   40 1   
    39   34   35 1   
    40   34   36 1   
    41   41   42 1   
    42   41   45 1   
    43   42   43 1   
    44   42   46 1   
    45   42   47 1   
    46   43   44 2   
    47   43   48 1   
    48   48   49 1   
    49   48   56 1   
    50   49   50 1   
    51   49   52 1   
    52   49   57 1   
    53   50   51 2   
    54   50   62 1   
    55   52   53 1   
    56   52   58 1   
    57   52   59 1   
    58   53   54 1   
    59   53   55 2   
    60   54   60 1   
    61   54   61 1   
    62   62   63 1   
    63   62   66 1   
    64   63   64 1   
    65   63   67 1   
    66   63   68 1   
    67   64   65 2   
    68   64   69 1   
    69   69   70 1   
    70   69   76 1   
    71   70   71 1   
    72   70   73 1   
    73   70   77 1   
    74   71   72 2   
    75   71   83 1   
    76   73   74 1   
    77   73   75 1   
    78   73   78 1   
    79   74   80 1   
    80   74   81 1   
    81   74   82 1   
    82   75   79 1   
    83   83   84 1   
    84   83   91 1   
    85   84   85 1   
    86   84   87 1   
    87   84   92 1   
    88   85   86 2   
    89   85  102 1   
    90   87   88 1   
    91   87   89 1   
    92   87   93 1   
    93   88   90 1   
    94   88   94 1   
    95   88   95 1   
    96   89   96 1   
    97   89   97 1   
    98   89   98 1   
    99   90   99 1   
   100   90  100 1   
   101   90  101 1   
   102  102  103 1   
   103  102  110 1   
   104  103  104 1   
   105  103  106 1   
   106  103  111 1   
   107  104  105 2   
   108  104  114 1   
   109  106  107 1   
   110  106  112 1   
   111  106  113 1   
   112  107  108 1   
   113  107  109 1   
   114  114  115 1   
   115  114  125 1   
   116  115  116 1   
   117  115  118 1   
   118  115  126 1   
   119  116  117 2   
   120  116  134 1   
   121  118  119 1   
   122  118  127 1   
   123  118  128 1   
   124  119  120 ar  
   125  119  121 ar  
   126  120  122 ar  
   127  120  129 1   
   128  121  123 ar  
   129  121  130 1   
   130  122  124 ar  
   131  122  131 1   
   132  123  124 ar  
   133  123  132 1   
   134  124  133 1   
   135  134  135 1   
   136  134  140 1   
   137  135  136 1   
   138  135  138 1   
   139  135  141 1   
   140  136  137 2   
   141  136  148 1   
   142  138  139 1   
   143  138  142 1   
   144  138  143 1   
   145  139  140 1   
   146  139  144 1   
   147  139  145 1   
   148  140  146 1   
   149  140  147 1   
   150  148  149 1   
   151  148  157 1   
   152  149  150 1   
   153  149  152 1   
   154  149  158 1   
   155  150  151 2   
   156  150  163 1   
   157  152  153 1   
   158  152  159 1   
   159  152  160 1   
   160  153  154 1   
   161  153  161 1   
   162  153  162 1   
   163  154  155 1   
   164  154  156 1   
   165  163  164 1   
   166  163  168 1   
   167  164  165 1   
   168  164  166 1   
   169  164  167 1   
   170  170  171 1   
   171  170  172 1   
   172  173  174 1   
   173  173  175 1   
@<TRIPOS>SUBSTRUCTURE
     1 MOL         1 TEMP              0 ****  ****    0 ROOT
