@<TRIPOS>MOLECULE
MOL
  182   178     1     0     0
SMALL
resp


@<TRIPOS>ATOM
      1 C1          2.7290    3.1940    3.9460 c3        1 MOL     -0.306775
      2 C2          1.7530    3.1660    2.8090 c         1 MOL      0.493808
      3 O1          2.1560    3.3630    1.6500 o         1 MOL     -0.556755
      4 H1          3.6000    2.5920    3.6900 hc        1 MOL      0.084757
      5 H2          3.0400    4.2210    4.1330 hc        1 MOL      0.084757
      6 H3          2.2580    2.7870    4.8410 hc        1 MOL      0.084757
      7 N1          0.4490    2.9720    3.0450 n         1 MOL     -0.312509
      8 C3         -0.5940    2.9560    2.0000 c3        1 MOL      0.099082
      9 C4         -0.9300    4.4230    1.6610 c         1 MOL      0.269774
     10 O2         -1.8180    5.1010    2.2740 o         1 MOL     -0.456632
     11 C5         -1.7700    2.1870    2.5910 c3        1 MOL     -0.128418
     12 C6         -2.6340    1.4360    1.5460 c         1 MOL      0.653104
     13 O3         -3.7830    1.0570    1.9060 o         1 MOL     -0.679557
     14 O4         -2.3710    1.4180    0.3220 o         1 MOL     -0.679557
     15 H4          0.1950    2.9230    4.0160 hn        1 MOL      0.261811
     16 H5         -0.2110    2.4440    1.1260 h1        1 MOL      0.017226
     17 H6         -2.4960    2.8930    2.9970 hc        1 MOL      0.041111
     18 H7         -1.4730    1.4520    3.3410 hc        1 MOL      0.041111
     19 N2         -0.2250    4.9260    0.6260 n         1 MOL     -0.233641
     20 C7         -0.4700    6.3200    0.0760 c3        1 MOL     -0.031407
     21 C8         -1.7110    6.4660   -0.8020 c         1 MOL      0.430923
     22 O5         -2.3910    7.4850   -0.7400 o         1 MOL     -0.532296
     23 C9          0.7290    6.9370   -0.6470 c3        1 MOL     -0.132159
     24 C10         1.8710    7.0140    0.3660 c3        1 MOL      0.078513
     25 C11         3.1700    7.7450   -0.0190 c3        1 MOL     -0.027049
     26 C12         4.1440    8.0580    1.2190 c3        1 MOL      0.057817
     27 N3          4.6790    6.8910    1.8560 n4        1 MOL     -0.454010
     28 H8          0.5900    4.3910    0.3550 hn        1 MOL      0.286733
     29 H9         -0.6940    6.8870    0.9700 h1        1 MOL      0.108924
     30 H10         0.5350    7.9320   -1.0290 hc        1 MOL      0.066640
     31 H11         0.9760    6.3610   -1.5410 hc        1 MOL      0.066640
     32 H12         2.1930    6.0240    0.7010 hc        1 MOL     -0.007430
     33 H13         1.4440    7.5170    1.2270 hc        1 MOL     -0.007430
     34 H14         2.9570    8.7100   -0.4720 hc        1 MOL      0.038103
     35 H15         3.8270    7.2000   -0.7010 hc        1 MOL      0.038103
     36 H16         3.5810    8.6730    1.9120 hx        1 MOL      0.075273
     37 H17         4.8700    8.7890    0.8680 hx        1 MOL      0.075273
     38 H18         4.1050    6.4350    2.5450 hn        1 MOL      0.358546
     39 H19         5.0680    6.2440    1.1830 hn        1 MOL      0.358546
     40 H20         5.4590    7.1580    2.4360 hn        1 MOL      0.358546
     41 N4         -2.1820    5.3630   -1.4060 n         1 MOL     -0.198476
     42 C13        -3.4680    5.1730   -2.1450 c3        1 MOL      0.071554
     43 C14        -4.6110    4.5880   -1.3000 c         1 MOL      0.410704
     44 O6         -5.7410    4.8470   -1.6200 o         1 MOL     -0.537618
     45 C15        -3.2890    4.2890   -3.3960 c3        1 MOL     -0.369764
     46 C16        -2.7230    2.9140   -3.0400 c         1 MOL      0.748741
     47 O7         -1.4860    2.8320   -2.9260 o         1 MOL     -0.697378
     48 O8         -3.5160    1.9800   -2.8160 o         1 MOL     -0.697378
     49 H21        -1.6800    4.4920   -1.3150 hn        1 MOL      0.097714
     50 H22        -3.8650    6.1470   -2.4300 h1        1 MOL      0.098251
     51 H23        -2.6540    4.9160   -4.0210 hc        1 MOL      0.099599
     52 H24        -4.2580    4.1820   -3.8940 hc        1 MOL      0.099599
     53 N5         -4.3290    4.0260   -0.1520 n         1 MOL     -0.019783
     54 C17        -5.3440    3.6830    0.8570 c3        1 MOL     -0.368854
     55 C18        -6.2300    2.4340    0.5640 c         1 MOL      0.689666
     56 O9         -7.2480    2.2810    1.2220 o         1 MOL     -0.606777
     57 H25        -3.3470    3.9670    0.0840 hn        1 MOL      0.158932
     58 H26        -6.0740    4.4870    0.9000 h1        1 MOL      0.148373
     59 H27        -4.8000    3.5030    1.7800 h1        1 MOL      0.148373
     60 N6         -5.8670    1.5160   -0.2800 n         1 MOL     -0.424480
     61 C19        -6.5840    0.1940   -0.6990 c3        1 MOL      0.004129
     62 C20        -6.6920   -0.9130    0.3740 c         1 MOL      0.412850
     63 O10        -7.3620   -1.8830    0.2380 o         1 MOL     -0.499682
     64 C21        -6.1060   -0.3400   -2.0010 c3        1 MOL     -0.273278
     65 C22        -4.9110   -1.2960   -1.9720 c         1 MOL      0.738583
     66 N7         -5.0670   -2.4250   -2.5770 n         1 MOL     -0.763068
     67 O11        -3.7950   -1.0400   -1.4480 o         1 MOL     -0.739542
     68 H28        -4.9320    1.6560   -0.6430 hn        1 MOL      0.258090
     69 H29        -7.6360    0.4560   -0.8200 h1        1 MOL      0.123978
     70 H30        -5.9030    0.4960   -2.6640 hc        1 MOL      0.119848
     71 H31        -6.9630   -0.8820   -2.4060 hc        1 MOL      0.119848
     72 H32        -5.9080   -2.7120   -3.0550 hn        1 MOL      0.365900
     73 H33        -4.2300   -2.9780   -2.6690 hn        1 MOL      0.365900
     74 N8         -6.0150   -0.7320    1.5230 n         1 MOL     -0.120614
     75 C23        -5.8990   -1.7460    2.5300 c3        1 MOL     -0.420864
     76 C24        -4.8190   -2.8860    2.3420 c         1 MOL      0.588349
     77 O12        -4.7100   -3.7940    3.1890 o         1 MOL     -0.581544
     78 H34        -5.2740   -0.0360    1.5030 hn        1 MOL      0.244325
     79 H35        -6.8720   -2.1520    2.7840 h1        1 MOL      0.164178
     80 H36        -5.4910   -1.2690    3.4200 h1        1 MOL      0.164178
     81 N9         -3.9560   -2.7080    1.3590 n         1 MOL     -0.250611
     82 C25        -2.7280   -3.5360    1.2510 c3        1 MOL      0.091324
     83 C26        -1.5100   -2.5980    1.0880 c         1 MOL      0.339297
     84 O13        -1.5220   -1.6220    0.3440 o         1 MOL     -0.479297
     85 C27        -2.8530   -4.4230    0.0030 c3        1 MOL      0.044607
     86 C28        -3.9680   -5.4460    0.1860 ca        1 MOL      0.028585
     87 C29        -5.2110   -5.3460   -0.4600 ca        1 MOL     -0.217516
     88 C30        -3.6710   -6.6230    0.9150 ca        1 MOL     -0.217516
     89 C31        -6.1990   -6.3030   -0.4300 ca        1 MOL     -0.186409
     90 C32        -4.6300   -7.6540    0.8610 ca        1 MOL     -0.186409
     91 C33        -5.8780   -7.5090    0.2060 ca        1 MOL      0.308904
     92 O14        -6.6510   -8.5680    0.0060 oh        1 MOL     -0.469626
     93 H37        -4.1680   -1.9270    0.7600 hn        1 MOL      0.233004
     94 H38        -2.5720   -4.1520    2.1360 h1        1 MOL      0.054813
     95 H39        -1.9510   -4.9870   -0.2270 hc        1 MOL     -0.007008
     96 H40        -3.0450   -3.7480   -0.8360 hc        1 MOL     -0.007008
     97 H41        -5.4380   -4.4410   -1.0180 ha        1 MOL      0.147495
     98 H42        -2.6840   -6.7070    1.3420 ha        1 MOL      0.147495
     99 H43        -7.1230   -6.0850   -0.9550 ha        1 MOL      0.123245
    100 H44        -4.3820   -8.6730    1.1430 ha        1 MOL      0.123245
    101 H45        -6.4740   -9.2030    0.6950 ho        1 MOL      0.347204
    102 N10        -0.4470   -3.1660    1.6170 n         1 MOL     -0.284897
    103 C34         0.9270   -2.6870    1.3180 c3        1 MOL     -0.242296
    104 C35         1.8690   -3.7650    0.7510 c         1 MOL      0.467290
    105 O15         1.7020   -4.9870    0.9980 o         1 MOL     -0.553379
    106 C36         1.5140   -1.9730    2.5100 c3        1 MOL      0.204889
    107 C37         1.6280   -2.9270    3.6710 c3        1 MOL     -0.174900
    108 C38         0.7510   -0.6570    2.8600 c3        1 MOL     -0.131596
    109 C39         2.0560   -2.2890    4.9640 c3        1 MOL     -0.183245
    110 H46        -0.6400   -4.0460    2.0650 hn        1 MOL      0.264172
    111 H47         0.8920   -1.9030    0.5730 h1        1 MOL      0.189100
    112 H48         2.5580   -1.8080    2.2400 hc        1 MOL     -0.039688
    113 H49         2.3360   -3.7410    3.4910 hc        1 MOL      0.083170
    114 H50         0.6150   -3.2930    3.8410 hc        1 MOL      0.083170
    115 H51         0.7440   -0.0830    1.9330 hc        1 MOL      0.056398
    116 H52        -0.2650   -0.8770    3.1830 hc        1 MOL      0.056398
    117 H53         1.2790   -0.1210    3.6380 hc        1 MOL      0.056398
    118 H54         2.2800   -3.0520    5.7070 hc        1 MOL      0.046256
    119 H55         2.9430   -1.7050    4.7220 hc        1 MOL      0.046256
    120 H56         1.3200   -1.6740    5.4890 hc        1 MOL      0.046256
    121 N11         2.7950   -3.3310   -0.0780 n         1 MOL     -0.013229
    122 C40         3.8050   -4.1600   -0.7950 c3        1 MOL     -0.235706
    123 C41         5.2250   -3.8640   -0.3240 c         1 MOL      0.612562
    124 O16         5.3900   -3.0340    0.5640 o         1 MOL     -0.490736
    125 C42         3.6640   -3.8270   -2.2270 c3        1 MOL     -0.104154
    126 O17         4.0170   -2.5690   -2.6130 oh        1 MOL     -0.520501
    127 H57         2.7380   -2.3390   -0.2550 hn        1 MOL      0.070632
    128 H58         3.6050   -5.2140   -0.5870 h1        1 MOL      0.124785
    129 H59         2.6570   -3.9850   -2.6150 h1        1 MOL      0.102638
    130 H60         4.2700   -4.4340   -2.9070 h1        1 MOL      0.102638
    131 H61         3.4260   -2.0060   -2.1100 ho        1 MOL      0.441644
    132 N12         6.2530   -4.4530   -0.9340 n         1 MOL     -0.492254
    133 C43         7.6110   -4.0950   -0.5900 c3        1 MOL      0.238252
    134 C44         8.1170   -2.6640   -0.9210 c         1 MOL      0.405561
    135 O18         8.7860   -2.0170   -0.1470 o         1 MOL     -0.482478
    136 C45         8.5490   -5.1920   -1.1730 c3        1 MOL     -0.340730
    137 H62         6.0510   -5.1620   -1.6230 hn        1 MOL      0.295618
    138 H63         7.7680   -4.1880    0.4850 h1        1 MOL      0.063883
    139 H64         8.4450   -5.1740   -2.2530 hc        1 MOL      0.100637
    140 H65         9.5700   -4.9470   -0.8800 hc        1 MOL      0.100637
    141 H66         8.2880   -6.1450   -0.7250 hc        1 MOL      0.100637
    142 N13         7.7460   -2.1470   -2.0970 n         1 MOL     -0.346359
    143 C46         7.9810   -0.6670   -2.4590 c3        1 MOL     -0.010653
    144 C47         7.2950    0.3010   -1.4920 c         1 MOL      0.323848
    145 O19         7.6110    1.4570   -1.2540 o         1 MOL     -0.513851
    146 C48         7.6250   -0.3870   -3.9410 c3        1 MOL     -0.251991
    147 H67         7.3720   -2.7670   -2.7960 hn        1 MOL      0.285759
    148 H68         9.0570   -0.4690   -2.4720 h1        1 MOL      0.132084
    149 H69         8.4140   -0.8240   -4.5630 hc        1 MOL      0.086196
    150 H70         6.6660   -0.8200   -4.2140 hc        1 MOL      0.086196
    151 H71         7.5350    0.6380   -4.3000 hc        1 MOL      0.086196
    152 N14         6.2860   -0.2210   -0.7850 n         1 MOL      0.144563
    153 C49         5.4340    0.5400    0.1730 c3        1 MOL     -0.036826
    154 C50         6.0630    0.5690    1.5620 c         1 MOL      0.412567
    155 O20         6.1560    1.6630    2.1530 o         1 MOL     -0.551578
    156 C51         3.9740    0.0190    0.2430 c3        1 MOL      0.105035
    157 C52         3.2140    0.8920   -0.7500 c3        1 MOL     -0.138034
    158 C53         1.8900    0.2440   -1.1470 c         1 MOL      0.872565
    159 O21         1.9410   -0.8760   -1.7010 o         1 MOL     -0.815548
    160 O22         0.7730    0.7340   -0.7980 o         1 MOL     -0.815548
    161 H72         6.1370   -1.2080   -0.9170 hn        1 MOL     -0.082038
    162 H73         5.3850    1.5860   -0.1170 h1        1 MOL      0.076943
    163 H74         3.5660    0.0580    1.2480 hc        1 MOL     -0.003073
    164 H75         3.9900   -1.0070   -0.1260 hc        1 MOL     -0.003073
    165 H76         3.7340    1.0220   -1.7000 hc        1 MOL      0.009428
    166 H77         3.0540    1.8970   -0.3560 hc        1 MOL      0.009428
    167 N15         6.7200   -0.5780    1.9250 n         1 MOL     -0.120008
    168 C54         7.6110   -0.6160    2.9860 c3        1 MOL     -0.192595
    169 H78         8.4760   -1.2200    2.7120 h1        1 MOL      0.079733
    170 H79         7.9360    0.3960    3.2260 h1        1 MOL      0.079733
    171 H80         7.1220   -1.0570    3.8550 h1        1 MOL      0.079733
    172 H81         6.6140   -1.3820    1.3290 hn        1 MOL      0.172007
    173 Ca1        -1.5700    0.2170   -1.8930 Ca        1 MOL      1.745347
    174 O23        -0.1530   -2.0870   -2.5170 oh        1 MOL     -0.812017
    175 H82         0.0110   -3.0320   -2.4610 ho        1 MOL      0.397524
    176 H83         0.7050   -1.6860   -2.3440 ho        1 MOL      0.397524
    177 O24        -2.5440   -1.1000   -4.0930 oh        1 MOL     -0.812017
    178 H84        -1.7010   -1.4930   -4.3210 ho        1 MOL      0.397524
    179 H85        -3.1810   -1.7990   -4.2350 ho        1 MOL      0.397524
    180 O25        -0.3210    0.5500   -4.1620 oh        1 MOL     -0.812017
    181 H86         0.1530    0.0850   -4.8480 ho        1 MOL      0.397524
    182 H87        -0.0730    1.4610   -4.2720 ho        1 MOL      0.397524
@<TRIPOS>BOND
     1    1    2 1   
     2    1    4 1   
     3    1    5 1   
     4    1    6 1   
     5    2    3 2   
     6    2    7 1   
     7    7    8 1   
     8    7   15 1   
     9    8    9 1   
    10    8   11 1   
    11    8   16 1   
    12    9   10 2   
    13    9   19 1   
    14   11   12 1   
    15   11   17 1   
    16   11   18 1   
    17   12   13 1   
    18   12   14 1   
    19   19   20 1   
    20   19   28 1   
    21   20   21 1   
    22   20   23 1   
    23   20   29 1   
    24   21   22 2   
    25   21   41 1   
    26   23   24 1   
    27   23   30 1   
    28   23   31 1   
    29   24   25 1   
    30   24   32 1   
    31   24   33 1   
    32   25   26 1   
    33   25   34 1   
    34   25   35 1   
    35   26   27 1   
    36   26   36 1   
    37   26   37 1   
    38   27   38 1   
    39   27   39 1   
    40   27   40 1   
    41   41   42 1   
    42   41   49 1   
    43   42   43 1   
    44   42   45 1   
    45   42   50 1   
    46   43   44 2   
    47   43   53 1   
    48   45   46 1   
    49   45   51 1   
    50   45   52 1   
    51   46   47 1   
    52   46   48 1   
    53   53   54 1   
    54   53   57 1   
    55   54   55 1   
    56   54   58 1   
    57   54   59 1   
    58   55   56 2   
    59   55   60 1   
    60   60   61 1   
    61   60   68 1   
    62   61   62 1   
    63   61   64 1   
    64   61   69 1   
    65   62   63 2   
    66   62   74 1   
    67   64   65 1   
    68   64   70 1   
    69   64   71 1   
    70   65   66 1   
    71   65   67 2   
    72   66   72 1   
    73   66   73 1   
    74   74   75 1   
    75   74   78 1   
    76   75   76 1   
    77   75   79 1   
    78   75   80 1   
    79   76   77 2   
    80   76   81 1   
    81   81   82 1   
    82   81   93 1   
    83   82   83 1   
    84   82   85 1   
    85   82   94 1   
    86   83   84 2   
    87   83  102 1   
    88   85   86 1   
    89   85   95 1   
    90   85   96 1   
    91   86   87 ar  
    92   86   88 ar  
    93   87   89 ar  
    94   87   97 1   
    95   88   90 ar  
    96   88   98 1   
    97   89   91 ar  
    98   89   99 1   
    99   90   91 ar  
   100   90  100 1   
   101   91   92 1   
   102   92  101 1   
   103  102  103 1   
   104  102  110 1   
   105  103  104 1   
   106  103  106 1   
   107  103  111 1   
   108  104  105 2   
   109  104  121 1   
   110  106  107 1   
   111  106  108 1   
   112  106  112 1   
   113  107  109 1   
   114  107  113 1   
   115  107  114 1   
   116  108  115 1   
   117  108  116 1   
   118  108  117 1   
   119  109  118 1   
   120  109  119 1   
   121  109  120 1   
   122  121  122 1   
   123  121  127 1   
   124  122  123 1   
   125  122  125 1   
   126  122  128 1   
   127  123  124 2   
   128  123  132 1   
   129  125  126 1   
   130  125  129 1   
   131  125  130 1   
   132  126  131 1   
   133  132  133 1   
   134  132  137 1   
   135  133  134 1   
   136  133  136 1   
   137  133  138 1   
   138  134  135 2   
   139  134  142 1   
   140  136  139 1   
   141  136  140 1   
   142  136  141 1   
   143  142  143 1   
   144  142  147 1   
   145  143  144 1   
   146  143  146 1   
   147  143  148 1   
   148  144  145 2   
   149  144  152 1   
   150  146  149 1   
   151  146  150 1   
   152  146  151 1   
   153  152  153 1   
   154  152  161 1   
   155  153  154 1   
   156  153  156 1   
   157  153  162 1   
   158  154  155 2   
   159  154  167 1   
   160  156  157 1   
   161  156  163 1   
   162  156  164 1   
   163  157  158 1   
   164  157  165 1   
   165  157  166 1   
   166  158  159 1   
   167  158  160 1   
   168  167  168 1   
   169  167  172 1   
   170  168  169 1   
   171  168  170 1   
   172  168  171 1   
   173  174  175 1   
   174  174  176 1   
   175  177  178 1   
   176  177  179 1   
   177  180  181 1   
   178  180  182 1   
@<TRIPOS>SUBSTRUCTURE
     1 MOL         1 TEMP              0 ****  ****    0 ROOT
