@<TRIPOS>MOLECULE
MOL
  179   176     1     0     0
SMALL
resp


@<TRIPOS>ATOM
      1 C1         -0.9640   -3.1250    6.4560 c3        1 MOL     -0.285317
      2 C2         -0.8660   -2.6130    4.9970 c         1 MOL      0.743673
      3 O1         -1.8840   -2.4740    4.3170 o         1 MOL     -0.608140
      4 H1         -0.4850   -4.1010    6.5310 hc        1 MOL      0.069660
      5 H2         -0.4630   -2.4230    7.1220 hc        1 MOL      0.069660
      6 H3         -2.0120   -3.2120    6.7410 hc        1 MOL      0.069660
      7 N1          0.3050   -2.3180    4.5330 n         1 MOL     -0.604184
      8 C3          0.7100   -2.1910    3.1330 c3        1 MOL     -0.039408
      9 C4          0.6790   -3.6260    2.4480 c         1 MOL      0.722420
     10 O2          1.3130   -4.6210    2.8770 o         1 MOL     -0.604446
     11 C5          2.0870   -1.6220    3.0490 c3        1 MOL     -0.282827
     12 C6          2.6300   -1.5170    1.6240 c         1 MOL      0.709441
     13 O3          3.7190   -0.9270    1.4290 o         1 MOL     -0.632846
     14 O4          2.1530   -2.0850    0.6190 o         1 MOL     -0.632846
     15 H4          1.0390   -2.2530    5.2260 hn        1 MOL      0.341044
     16 H5          0.0330   -1.5370    2.5810 h1        1 MOL      0.050684
     17 H6          2.7860   -2.2090    3.6600 hc        1 MOL      0.087536
     18 H7          2.0820   -0.6610    3.5490 hc        1 MOL      0.087536
     19 N2         -0.0890   -3.7480    1.3880 n         1 MOL     -0.385046
     20 C7         -0.4100   -4.9550    0.5980 c3        1 MOL     -0.301592
     21 C8          0.8360   -5.5030   -0.0760 c         1 MOL      0.649727
     22 O5          0.9520   -6.6520   -0.5080 o         1 MOL     -0.614289
     23 C9         -1.6780   -4.7020   -0.3020 c3        1 MOL      0.398529
     24 C10        -2.4800   -5.9000   -0.7690 c3        1 MOL     -0.300083
     25 C11        -3.8390   -5.5380   -1.3740 c3        1 MOL      0.114147
     26 C12        -4.2030   -6.5310   -2.5610 c3        1 MOL     -0.017348
     27 N3         -5.2580   -5.9570   -3.4410 n4        1 MOL     -0.581741
     28 H8         -0.3540   -2.8170    1.0780 hn        1 MOL      0.258796
     29 H9         -0.6920   -5.7430    1.2980 h1        1 MOL      0.123317
     30 H10        -1.2520   -4.1630   -1.1410 hc        1 MOL     -0.030954
     31 H11        -2.4020   -4.0590    0.1890 hc        1 MOL     -0.030954
     32 H12        -2.7770   -6.5510    0.0440 hc        1 MOL      0.069858
     33 H13        -1.7810   -6.4150   -1.4390 hc        1 MOL      0.069858
     34 H14        -3.8270   -4.5470   -1.8330 hc        1 MOL      0.039242
     35 H15        -4.6200   -5.5800   -0.6240 hc        1 MOL      0.039242
     36 H16        -4.5370   -7.4670   -2.1260 hx        1 MOL      0.098454
     37 H17        -3.2580   -6.6860   -3.0750 hx        1 MOL      0.098454
     38 H18        -6.1440   -6.1190   -2.9750 hn        1 MOL      0.394990
     39 H19        -4.9340   -5.0060   -3.6060 hn        1 MOL      0.394990
     40 H20        -5.3630   -6.5550   -4.2370 hn        1 MOL      0.394990
     41 N4          1.7820   -4.6810   -0.3330 n         1 MOL     -0.421505
     42 C13         2.9010   -5.0590   -1.3170 c3        1 MOL     -0.088873
     43 C14         4.2780   -4.4540   -1.0120 c         1 MOL      0.383176
     44 O6          5.2450   -4.5090   -1.8000 o         1 MOL     -0.496930
     45 C15         2.4150   -4.6720   -2.7400 c3        1 MOL     -0.077937
     46 C16         2.0160   -3.1810   -2.6940 c         1 MOL      0.652258
     47 O7          0.8540   -2.8280   -2.5120 o         1 MOL     -0.736259
     48 O8          2.9260   -2.3480   -2.6940 o         1 MOL     -0.736259
     49 H21         1.7310   -3.7640    0.0820 hn        1 MOL      0.352356
     50 H22         2.9690   -6.1390   -1.3250 h1        1 MOL      0.163207
     51 H23         1.5960   -5.3050   -3.0880 hc        1 MOL      0.037707
     52 H24         3.1780   -4.8870   -3.4890 hc        1 MOL      0.037707
     53 N5          4.4820   -3.9300    0.2070 n         1 MOL     -0.163010
     54 C17         5.8380   -3.5700    0.7320 c3        1 MOL     -0.155485
     55 C18         6.6840   -2.5170   -0.0260 c         1 MOL      0.501918
     56 O9          7.9190   -2.5150    0.0560 o         1 MOL     -0.552351
     57 H25         3.6970   -3.8900    0.8530 hn        1 MOL      0.168283
     58 H26         6.4350   -4.4730    0.7980 h1        1 MOL      0.090054
     59 H27         5.7330   -3.1380    1.7290 h1        1 MOL      0.090054
     60 N6          5.9980   -1.6010   -0.7040 n         1 MOL     -0.217510
     61 C19         6.6300   -0.3660   -1.2300 c3        1 MOL     -0.062389
     62 C20         6.7430    0.7900   -0.2220 c         1 MOL      0.309730
     63 O10         7.2990    1.8450   -0.5490 o         1 MOL     -0.433976
     64 C21         5.8760    0.0130   -2.5330 c3        1 MOL     -0.138068
     65 C22         4.4570    0.5380   -2.3320 c         1 MOL      0.485871
     66 N7          3.9080    1.4280   -3.1900 n         1 MOL     -0.725225
     67 O11         3.7400    0.1690   -1.4360 o         1 MOL     -0.303335
     68 H28         5.0060   -1.6810   -0.8450 hn        1 MOL      0.222455
     69 H29         7.6800   -0.5330   -1.4710 h1        1 MOL      0.137003
     70 H30         5.9460   -0.8250   -3.2260 hc        1 MOL      0.075003
     71 H31         6.3970    0.8220   -3.0330 hc        1 MOL      0.075003
     72 H32         4.5420    1.7940   -3.8870 hn        1 MOL      0.351305
     73 H33         2.9790    1.7960   -3.0260 hn        1 MOL      0.351305
     74 N8          6.1790    0.5950    1.0050 n         1 MOL     -0.132471
     75 C23         6.1540    1.6880    1.9470 c3        1 MOL     -0.348169
     76 C24         5.0150    2.6280    1.7310 c         1 MOL      0.649677
     77 O12         4.9290    3.6500    2.4140 o         1 MOL     -0.584505
     78 H34         5.6740   -0.2540    1.2200 hn        1 MOL      0.212780
     79 H35         7.1060    2.2090    1.9600 h1        1 MOL      0.154216
     80 H36         6.0340    1.2280    2.9320 h1        1 MOL      0.154216
     81 N9          3.9210    2.3530    0.9600 n         1 MOL     -0.209035
     82 C25         2.8350    3.2610    0.7830 c3        1 MOL      0.238717
     83 C26         1.4790    2.5410    0.8340 c         1 MOL      0.325127
     84 O13         1.4060    1.3820    0.4770 o         1 MOL     -0.505631
     85 C27         2.9890    3.9790   -0.5420 c3        1 MOL      0.088870
     86 C28         4.1400    4.9680   -0.5160 ca        1 MOL     -0.231235
     87 C29         5.3880    4.5630   -1.0540 ca        1 MOL     -0.036274
     88 C30         4.0070    6.2690    0.0220 ca        1 MOL     -0.036274
     89 C31         6.4790    5.5020   -1.1070 ca        1 MOL     -0.255564
     90 C32         5.0350    7.2500   -0.1200 ca        1 MOL     -0.255564
     91 C33         6.2300    6.8370   -0.6840 ca        1 MOL      0.316346
     92 O14         7.2510    7.7230   -0.7750 oh        1 MOL     -0.457482
     93 H37         3.7760    1.3970    0.6540 hn        1 MOL     -0.027942
     94 H38         2.6710    4.0150    1.5520 h1        1 MOL      0.008631
     95 H39         2.0240    4.4270   -0.7950 hc        1 MOL     -0.001862
     96 H40         3.1470    3.2960   -1.3770 hc        1 MOL     -0.001862
     97 H41         5.5700    3.5950   -1.5000 ha        1 MOL      0.080833
     98 H42         3.0670    6.6540    0.4050 ha        1 MOL      0.080833
     99 H43         7.4400    5.1870   -1.4820 ha        1 MOL      0.145915
    100 H44         4.8130    8.2610    0.1790 ha        1 MOL      0.145915
    101 H45         6.8760    8.6050   -0.6630 ho        1 MOL      0.330646
    102 N10         0.4500    3.2390    1.1790 n         1 MOL     -0.433721
    103 C34        -0.9280    2.5930    1.2770 c3        1 MOL     -0.045887
    104 C35        -1.9070    3.4720    0.4430 c         1 MOL      0.499160
    105 O15        -2.1710    4.6240    0.7710 o         1 MOL     -0.521652
    106 C36        -1.3610    2.5060    2.7760 c3        1 MOL     -0.011352
    107 C37        -0.5620    1.4280    3.4670 c3        1 MOL     -0.107725
    108 C38        -2.9180    2.1130    2.9480 c3        1 MOL     -0.119540
    109 C39        -0.7380    1.3130    5.0010 c3        1 MOL     -0.226845
    110 H46         0.6820    4.0470    1.7250 hn        1 MOL      0.319851
    111 H47        -0.8970    1.6390    0.7390 h1        1 MOL      0.141523
    112 H48        -1.2580    3.4710    3.2760 hc        1 MOL      0.061756
    113 H49         0.5020    1.3420    3.2150 hc        1 MOL      0.107989
    114 H50        -0.9950    0.4860    3.1200 hc        1 MOL      0.107989
    115 H51        -3.2650    2.0210    3.9700 hc        1 MOL      0.040325
    116 H52        -3.5270    2.7870    2.3440 hc        1 MOL      0.040325
    117 H53        -3.0010    1.1160    2.5150 hc        1 MOL      0.040325
    118 H54        -0.0340    0.5690    5.3810 hc        1 MOL      0.060960
    119 H55        -0.5530    2.2330    5.5590 hc        1 MOL      0.060960
    120 H56        -1.7420    1.0190    5.2940 hc        1 MOL      0.060960
    121 N11        -2.4700    2.9450   -0.6420 n         1 MOL     -0.332087
    122 C40        -3.5450    3.6550   -1.3080 c3        1 MOL      0.077128
    123 C41        -4.8460    3.6890   -0.5520 c         1 MOL      0.347862
    124 O16        -4.9860    2.8260    0.3490 o         1 MOL     -0.302682
    125 C42        -3.8260    3.0420   -2.6880 c3        1 MOL     -0.271959
    126 O17        -4.4430    1.8310   -2.5350 oh        1 MOL     -0.197885
    127 H57        -2.1820    2.0460   -1.0130 hn        1 MOL      0.254653
    128 H58        -3.2950    4.7070   -1.4030 h1        1 MOL      0.073243
    129 H59        -2.9320    2.7300   -3.2220 h1        1 MOL      0.100241
    130 H60        -4.5410    3.6190   -3.2720 h1        1 MOL      0.100241
    131 H61        -4.4430    1.4470   -3.4180 ho        1 MOL      0.340855
    132 N12        -5.8160    4.4420   -0.9200 n         1 MOL     -0.333470
    133 C43        -7.1460    4.2780   -0.3460 c3        1 MOL      0.070806
    134 C44        -7.7350    2.8220   -0.5160 c         1 MOL      0.405168
    135 O18        -8.3080    2.2870    0.3840 o         1 MOL     -0.484315
    136 C45        -8.0700    5.4210   -0.8570 c3        1 MOL     -0.128427
    137 H62        -5.7210    5.0690   -1.7040 hn        1 MOL      0.278727
    138 H63        -7.1140    4.5420    0.7170 h1        1 MOL      0.088899
    139 H64        -9.0450    5.4540   -0.3630 hc        1 MOL      0.048474
    140 H65        -7.6360    6.4040   -0.7380 hc        1 MOL      0.048474
    141 H66        -8.2750    5.2540   -1.9120 hc        1 MOL      0.048474
    142 N13        -7.5760    2.1900   -1.6590 n         1 MOL     -0.224666
    143 C46        -7.9710    0.8890   -1.9520 c3        1 MOL      0.055966
    144 C47        -7.3060   -0.1270   -1.0000 c         1 MOL      0.345879
    145 O19        -7.9510   -1.1390   -0.6290 o         1 MOL     -0.524961
    146 C48        -7.6650    0.6190   -3.4110 c3        1 MOL     -0.285929
    147 H67        -7.0640    2.6680   -2.3920 hn        1 MOL      0.193056
    148 H68        -9.0560    0.8470   -1.8860 h1        1 MOL      0.099070
    149 H69        -8.1720   -0.2670   -3.7920 hc        1 MOL      0.079841
    150 H70        -8.0940    1.4110   -4.0240 hc        1 MOL      0.079841
    151 H71        -6.5930    0.4350   -3.5100 hc        1 MOL      0.079841
    152 N14        -6.0130    0.0160   -0.6450 n         1 MOL      0.075814
    153 C49        -5.2500   -0.7870    0.3230 c3        1 MOL     -0.028536
    154 C50        -5.7860   -0.6710    1.7270 c         1 MOL      0.445765
    155 O20        -6.0790   -1.6910    2.3220 o         1 MOL     -0.524704
    156 C51        -3.7960   -0.5440    0.1800 c3        1 MOL      0.057361
    157 C52        -3.0790   -1.1430   -1.0540 c3        1 MOL      0.177832
    158 C53        -1.6240   -0.8290   -0.9340 c         1 MOL      0.741952
    159 O21        -1.0590    0.0840   -1.5920 o         1 MOL     -0.827421
    160 O22        -0.9380   -1.2610   -0.0200 o         1 MOL     -0.827421
    161 H72        -5.5610    0.8660   -0.9560 hn        1 MOL     -0.236293
    162 H73        -5.4620   -1.8160    0.0360 h1        1 MOL     -0.000216
    163 H74        -3.3250   -0.8650    1.1020 hc        1 MOL      0.054252
    164 H75        -3.6590    0.5400    0.2260 hc        1 MOL      0.054252
    165 H76        -3.5020   -0.6370   -1.9180 hc        1 MOL     -0.132317
    166 H77        -3.1800   -2.2260   -1.0970 hc        1 MOL     -0.132317
    167 N15        -6.0860    0.5640    2.1440 n         1 MOL      0.005788
    168 C54        -6.6940    0.8990    3.4180 c3        1 MOL     -0.313085
    169 H78        -6.4420    1.9250    3.6820 h1        1 MOL      0.115054
    170 H79        -7.7770    0.7990    3.3410 h1        1 MOL      0.115054
    171 H80        -6.3200    0.2240    4.1880 h1        1 MOL      0.115054
    172 H81        -5.7500    1.3290    1.5760 hn        1 MOL      0.050626
    173 Ca1         1.3400   -0.6370   -1.3460 Ca        1 MOL      1.657239
    174 O23         1.3750   -0.3580   -4.1210 oh        1 MOL     -0.784420
    175 H82         1.6780    0.0560   -4.9270 ho        1 MOL      0.387831
    176 H83         1.3230   -1.2890   -4.3410 ho        1 MOL      0.387831
    177 O24         0.7150    2.0020   -2.5880 oh        1 MOL     -0.784420
    178 H84        -0.1470    1.6560   -2.3470 ho        1 MOL      0.387831
    179 H85         0.5840    2.9390   -2.7100 ho        1 MOL      0.387831
@<TRIPOS>BOND
     1    1    2 1   
     2    1    4 1   
     3    1    5 1   
     4    1    6 1   
     5    2    3 2   
     6    2    7 1   
     7    7    8 1   
     8    7   15 1   
     9    8    9 1   
    10    8   11 1   
    11    8   16 1   
    12    9   10 2   
    13    9   19 1   
    14   11   12 1   
    15   11   17 1   
    16   11   18 1   
    17   12   13 1   
    18   12   14 1   
    19   19   20 1   
    20   19   28 1   
    21   20   21 1   
    22   20   23 1   
    23   20   29 1   
    24   21   22 2   
    25   21   41 1   
    26   23   24 1   
    27   23   30 1   
    28   23   31 1   
    29   24   25 1   
    30   24   32 1   
    31   24   33 1   
    32   25   26 1   
    33   25   34 1   
    34   25   35 1   
    35   26   27 1   
    36   26   36 1   
    37   26   37 1   
    38   27   38 1   
    39   27   39 1   
    40   27   40 1   
    41   41   42 1   
    42   41   49 1   
    43   42   43 1   
    44   42   45 1   
    45   42   50 1   
    46   43   44 2   
    47   43   53 1   
    48   45   46 1   
    49   45   51 1   
    50   45   52 1   
    51   46   47 1   
    52   46   48 1   
    53   53   54 1   
    54   53   57 1   
    55   54   55 1   
    56   54   58 1   
    57   54   59 1   
    58   55   56 2   
    59   55   60 1   
    60   60   61 1   
    61   60   68 1   
    62   61   62 1   
    63   61   64 1   
    64   61   69 1   
    65   62   63 2   
    66   62   74 1   
    67   64   65 1   
    68   64   70 1   
    69   64   71 1   
    70   65   66 1   
    71   65   67 2   
    72   66   72 1   
    73   66   73 1   
    74   74   75 1   
    75   74   78 1   
    76   75   76 1   
    77   75   79 1   
    78   75   80 1   
    79   76   77 2   
    80   76   81 1   
    81   81   82 1   
    82   81   93 1   
    83   82   83 1   
    84   82   85 1   
    85   82   94 1   
    86   83   84 2   
    87   83  102 1   
    88   85   86 1   
    89   85   95 1   
    90   85   96 1   
    91   86   87 ar  
    92   86   88 ar  
    93   87   89 ar  
    94   87   97 1   
    95   88   90 ar  
    96   88   98 1   
    97   89   91 ar  
    98   89   99 1   
    99   90   91 ar  
   100   90  100 1   
   101   91   92 1   
   102   92  101 1   
   103  102  103 1   
   104  102  110 1   
   105  103  104 1   
   106  103  106 1   
   107  103  111 1   
   108  104  105 2   
   109  104  121 1   
   110  106  107 1   
   111  106  108 1   
   112  106  112 1   
   113  107  109 1   
   114  107  113 1   
   115  107  114 1   
   116  108  115 1   
   117  108  116 1   
   118  108  117 1   
   119  109  118 1   
   120  109  119 1   
   121  109  120 1   
   122  121  122 1   
   123  121  127 1   
   124  122  123 1   
   125  122  125 1   
   126  122  128 1   
   127  123  124 2   
   128  123  132 1   
   129  125  126 1   
   130  125  129 1   
   131  125  130 1   
   132  126  131 1   
   133  132  133 1   
   134  132  137 1   
   135  133  134 1   
   136  133  136 1   
   137  133  138 1   
   138  134  135 2   
   139  134  142 1   
   140  136  139 1   
   141  136  140 1   
   142  136  141 1   
   143  142  143 1   
   144  142  147 1   
   145  143  144 1   
   146  143  146 1   
   147  143  148 1   
   148  144  145 2   
   149  144  152 1   
   150  146  149 1   
   151  146  150 1   
   152  146  151 1   
   153  152  153 1   
   154  152  161 1   
   155  153  154 1   
   156  153  156 1   
   157  153  162 1   
   158  154  155 2   
   159  154  167 1   
   160  156  157 1   
   161  156  163 1   
   162  156  164 1   
   163  157  158 1   
   164  157  165 1   
   165  157  166 1   
   166  158  159 1   
   167  158  160 1   
   168  167  168 1   
   169  167  172 1   
   170  168  169 1   
   171  168  170 1   
   172  168  171 1   
   173  174  175 1   
   174  174  176 1   
   175  177  178 1   
   176  177  179 1   
@<TRIPOS>SUBSTRUCTURE
     1 MOL         1 TEMP              0 ****  ****    0 ROOT
