@<TRIPOS>MOLECULE
MOL
  172   171     1     0     0
SMALL
resp


@<TRIPOS>ATOM
      1 C1         -0.1730   -3.0510    5.9390 c3        1 MOL     -0.349893
      2 C2          0.3270   -2.9040    4.4940 c         1 MOL      0.771678
      3 O1         -0.2440   -3.5140    3.6220 o         1 MOL     -0.608662
      4 H1         -0.7820   -2.1870    6.2020 hc        1 MOL      0.077837
      5 H2         -0.7720   -3.9580    6.0270 hc        1 MOL      0.077837
      6 H3          0.6810   -3.1120    6.6150 hc        1 MOL      0.077837
      7 N1          1.3960   -2.2160    4.2010 n         1 MOL     -0.618806
      8 C3          2.0900   -2.0400    2.9180 c3        1 MOL      0.279581
      9 C4          2.5880   -3.4180    2.4560 c         1 MOL      0.576620
     10 O2          3.1510   -4.1690    3.1700 o         1 MOL     -0.591028
     11 C5          3.1830   -1.0740    3.1400 c3        1 MOL     -0.321527
     12 C6          3.9420   -0.9200    1.8400 c         1 MOL      0.801666
     13 O3          5.1740   -1.1890    1.8400 o         1 MOL     -0.718300
     14 O4          3.3980   -0.4270    0.8380 o         1 MOL     -0.718300
     15 H4          1.8610   -1.7190    4.9480 hn        1 MOL      0.287127
     16 H5          1.3930   -1.6410    2.1710 h1        1 MOL      0.015640
     17 H6          3.8000   -1.3680    3.9910 hc        1 MOL      0.056322
     18 H7          2.6790   -0.1210    3.3010 hc        1 MOL      0.056322
     19 N2          2.1690   -3.7610    1.2270 n         1 MOL     -0.214645
     20 C7          2.4850   -5.0330    0.6100 c3        1 MOL      0.208437
     21 C8          3.6400   -4.9800   -0.3620 c         1 MOL      0.509884
     22 O5          4.6300   -5.6820   -0.1760 o         1 MOL     -0.568746
     23 C9          1.1620   -5.5970   -0.0370 c3        1 MOL     -0.433262
     24 H8          1.5640   -3.1600    0.6760 hn        1 MOL      0.043271
     25 H9          2.8040   -5.7800    1.3410 h1        1 MOL      0.024660
     26 H10         0.7500   -4.8950   -0.7610 hc        1 MOL      0.102949
     27 H11         1.4270   -6.5420   -0.5020 hc        1 MOL      0.102949
     28 H12         0.3510   -5.5710    0.6940 hc        1 MOL      0.102949
     29 N3          3.5260   -4.1130   -1.4290 n         1 MOL     -0.389217
     30 C10         4.5680   -3.9150   -2.4130 c3        1 MOL     -0.072215
     31 C11         5.8660   -3.3500   -2.0030 c         1 MOL      0.582708
     32 O6          6.8380   -3.5860   -2.6870 o         1 MOL     -0.598142
     33 C12         4.0330   -3.0720   -3.5700 c3        1 MOL     -0.289209
     34 C13         3.6410   -1.6190   -3.1710 c         1 MOL      0.880313
     35 O7          3.9010   -1.0830   -2.1040 o         1 MOL     -0.759682
     36 O8          2.9510   -1.0620   -3.9820 o         1 MOL     -0.759682
     37 H13         2.6630   -3.6060   -1.5640 hn        1 MOL      0.313024
     38 H14         4.8830   -4.9300   -2.7100 h1        1 MOL      0.084245
     39 H15         3.1030   -3.4740   -3.9570 hc        1 MOL      0.068974
     40 H16         4.7560   -2.9680   -4.3840 hc        1 MOL      0.068974
     41 N4          5.9020   -2.7590   -0.8100 n         1 MOL     -0.195955
     42 C14         7.1510   -2.2370   -0.2030 c3        1 MOL     -0.006488
     43 C15         7.5250   -0.8150   -0.6480 c         1 MOL      0.452486
     44 O9          8.6930   -0.5270   -0.8470 o         1 MOL     -0.604075
     45 H17         5.0250   -2.5350   -0.3570 hn        1 MOL      0.141371
     46 H18         8.0020   -2.9080   -0.3330 h1        1 MOL      0.066041
     47 H19         7.0670   -2.2710    0.8820 h1        1 MOL      0.066041
     48 N5          6.5760    0.0990   -0.9290 n         1 MOL     -0.064275
     49 C16         6.8480    1.4220   -1.4950 c3        1 MOL      0.084788
     50 C17         6.5850    2.5350   -0.4910 c         1 MOL      0.363185
     51 O10         6.6680    3.6990   -0.8550 o         1 MOL     -0.532558
     52 C18         6.1560    1.6460   -2.8380 c3        1 MOL     -0.266709
     53 C19         4.6960    1.9740   -2.7430 c         1 MOL      0.571198
     54 N6          3.9590    2.1650   -3.8060 n         1 MOL     -0.748766
     55 O11         4.0970    2.0070   -1.6370 o         1 MOL     -0.438903
     56 H20         5.6230   -0.1930   -0.7420 hn        1 MOL     -0.053548
     57 H21         7.9110    1.5020   -1.6980 h1        1 MOL      0.092121
     58 H22         6.2550    0.6900   -3.3540 hc        1 MOL      0.095497
     59 H23         6.6220    2.4880   -3.3390 hc        1 MOL      0.095497
     60 H24         4.3590    1.9130   -4.7040 hn        1 MOL      0.359713
     61 H25         2.9850    2.4450   -3.7150 hn        1 MOL      0.359713
     62 N7          6.2090    2.3350    0.7470 n         1 MOL     -0.135905
     63 C20         6.2630    3.2400    1.8410 c3        1 MOL     -0.252024
     64 C21         4.9980    4.0480    1.9950 c         1 MOL      0.607352
     65 O12         5.0240    5.0360    2.7010 o         1 MOL     -0.583528
     66 H26         6.2120    1.3980    1.1200 hn        1 MOL      0.233278
     67 H27         7.0680    3.9600    1.7560 h1        1 MOL      0.116867
     68 H28         6.3730    2.6920    2.7860 h1        1 MOL      0.116867
     69 N8          3.9200    3.6700    1.3180 n         1 MOL     -0.286836
     70 C22         2.6860    4.4430    1.2000 c3        1 MOL     -0.040394
     71 C23         1.4600    3.5120    1.1060 c         1 MOL      0.599680
     72 O13         1.6210    2.3590    0.6380 o         1 MOL     -0.613806
     73 C24         2.7020    5.5250    0.0260 c3        1 MOL      0.274571
     74 C25         3.9870    6.4020   -0.1680 c3        1 MOL     -0.376575
     75 O14         2.4860    4.8590   -1.2280 oh        1 MOL     -0.541401
     76 H29         4.1520    3.0810    0.5310 hn        1 MOL      0.136459
     77 H30         2.5750    5.0010    2.1340 h1        1 MOL      0.062978
     78 H31         1.7960    6.1370    0.0560 h1        1 MOL     -0.007744
     79 H32         2.7050    5.4760   -1.9260 ho        1 MOL      0.370528
     80 H33         4.1520    7.0320    0.7020 hc        1 MOL      0.108841
     81 H34         4.8640    5.7620   -0.2750 hc        1 MOL      0.108841
     82 H35         4.0100    7.0120   -1.0690 hc        1 MOL      0.108841
     83 N9          0.2430    3.8020    1.5920 n         1 MOL     -0.502920
     84 C26        -0.8920    2.8180    1.7140 c3        1 MOL      0.033462
     85 C27        -1.8510    2.8640    0.5160 c         1 MOL      0.622084
     86 O15        -2.4910    3.8900    0.3680 o         1 MOL     -0.608917
     87 C28        -1.6520    2.9020    3.0420 c3        1 MOL      0.017311
     88 C29        -0.7680    2.8670    4.3010 c3        1 MOL      0.225308
     89 C30        -2.8960    1.9830    3.1630 c3        1 MOL     -0.231329
     90 C31        -1.4520    3.0170    5.6650 c3        1 MOL     -0.240707
     91 H36         0.0720    4.6960    2.0310 hn        1 MOL      0.284052
     92 H37        -0.4170    1.8350    1.8090 h1        1 MOL      0.132587
     93 H38        -2.0080    3.9320    3.0990 hc        1 MOL      0.006607
     94 H39        -0.2710    3.8310    4.2400 hc        1 MOL     -0.044906
     95 H40         0.0380    2.1270    4.3230 hc        1 MOL     -0.044906
     96 H41        -3.2350    1.7630    4.1720 hc        1 MOL      0.047791
     97 H42        -3.7010    2.3800    2.5390 hc        1 MOL      0.047791
     98 H43        -2.6270    1.0160    2.7160 hc        1 MOL      0.047791
     99 H44        -0.7820    3.6020    6.2900 hc        1 MOL      0.049619
    100 H45        -2.4650    3.4240    5.6380 hc        1 MOL      0.049619
    101 H46        -1.5180    2.0400    6.1500 hc        1 MOL      0.049619
    102 N10        -1.9440    1.8380   -0.2960 n         1 MOL     -0.206697
    103 C32        -2.9210    1.7350   -1.4020 c3        1 MOL      0.038361
    104 C33        -4.2670    1.3740   -0.8930 c         1 MOL      0.390726
    105 O16        -4.4200    0.8260    0.1930 o         1 MOL     -0.263986
    106 C34        -2.4990    0.6420   -2.3750 c3        1 MOL     -0.391325
    107 C35        -1.1590    0.9610   -3.0070 c         1 MOL      0.836931
    108 O17        -0.1640    0.2180   -2.8400 o         1 MOL     -0.716351
    109 O18        -1.0130    1.9970   -3.7430 o         1 MOL     -0.716351
    110 H47        -1.5540    0.9280   -0.1130 hn        1 MOL      0.018678
    111 H48        -2.8240    2.6550   -1.9770 h1        1 MOL      0.067446
    112 H49        -3.2520    0.7660   -3.1520 hc        1 MOL      0.101234
    113 H50        -2.4580   -0.3330   -1.8740 hc        1 MOL      0.101234
    114 N11        -5.3030    1.4460   -1.7760 n         1 MOL     -0.582745
    115 C36        -6.6720    1.1370   -1.4270 c3        1 MOL      0.276903
    116 C37        -6.8700   -0.3600   -1.0290 c         1 MOL      0.291236
    117 O19        -7.5400   -0.6050   -0.0710 o         1 MOL     -0.478534
    118 C38        -7.7850    1.6380   -2.3920 c3        1 MOL     -0.107335
    119 C39        -9.1830    1.6750   -1.8480 ca        1 MOL     -0.082645
    120 C40        -9.5200    2.4730   -0.7610 ca        1 MOL     -0.002585
    121 C41       -10.0080    0.6380   -2.2360 ca        1 MOL     -0.002585
    122 C42       -10.7930    2.4410   -0.2830 ca        1 MOL     -0.232557
    123 C43       -11.3010    0.5020   -1.7500 ca        1 MOL     -0.232557
    124 C44       -11.6120    1.3520   -0.6810 ca        1 MOL      0.012313
    125 H51        -5.1810    1.9610   -2.6430 hn        1 MOL      0.328451
    126 H52        -6.8240    1.6450   -0.4680 h1        1 MOL      0.060383
    127 H53        -7.6500    1.1080   -3.3400 hc        1 MOL      0.040187
    128 H54        -7.5910    2.6700   -2.6910 hc        1 MOL      0.040187
    129 H55        -8.8480    3.2420   -0.4100 ha        1 MOL      0.086341
    130 H56        -9.5960   -0.1270   -2.8800 ha        1 MOL      0.086341
    131 H57       -11.0750    3.1640    0.4670 ha        1 MOL      0.136563
    132 H58       -12.0020   -0.2550   -2.0670 ha        1 MOL      0.136563
    133 H59       -12.5360    1.2310   -0.1280 ha        1 MOL      0.068022
    134 N12        -6.3350   -1.4010   -1.6780 n         1 MOL     -0.028327
    135 C45        -6.3880   -2.7970   -1.2250 c3        1 MOL      0.026799
    136 C46        -5.5860   -2.9980    0.0680 c         1 MOL      0.213880
    137 O20        -5.7410   -4.0090    0.7570 o         1 MOL     -0.484729
    138 C47        -5.8710   -3.6260   -2.3530 c3        1 MOL      0.018515
    139 C48        -6.2270   -2.7800   -3.5620 c3        1 MOL     -0.200976
    140 C49        -5.8190   -1.3590   -3.0540 c3        1 MOL     -0.062746
    141 H60        -7.3700   -3.1930   -0.9570 h1        1 MOL      0.084976
    142 H61        -4.7780   -3.6430   -2.3610 hc        1 MOL      0.045140
    143 H62        -6.3110   -4.6220   -2.3430 hc        1 MOL      0.045140
    144 H63        -5.5860   -3.1280   -4.3850 hc        1 MOL      0.064080
    145 H64        -7.2970   -2.7960   -3.7520 hc        1 MOL      0.064080
    146 H65        -4.7410   -1.2160   -3.1330 h1        1 MOL      0.072193
    147 H66        -6.2170   -0.5480   -3.6750 h1        1 MOL      0.072193
    148 N13        -4.6480   -2.0720    0.4550 n         1 MOL     -0.032958
    149 C50        -3.7910   -2.1410    1.6290 c3        1 MOL     -0.090706
    150 C51        -4.5400   -1.4090    2.8140 c         1 MOL      0.495430
    151 O21        -4.5310   -1.8700    3.9590 o         1 MOL     -0.568566
    152 C52        -2.3990   -1.4540    1.2630 c3        1 MOL      0.138939
    153 C53        -1.4540   -2.3690    0.4080 c3        1 MOL     -0.210862
    154 C54        -0.1890   -1.6670   -0.0300 c         1 MOL      0.808669
    155 O22         0.7180   -2.2290   -0.6330 o         1 MOL     -0.746881
    156 O23        -0.0310   -0.4740    0.2440 o         1 MOL     -0.746881
    157 H67        -4.5670   -1.2300   -0.0790 hn        1 MOL      0.033943
    158 H68        -3.6310   -3.1820    1.9190 h1        1 MOL      0.104087
    159 H69        -1.8840   -1.3980    2.2220 hc        1 MOL     -0.014283
    160 H70        -2.6140   -0.5000    0.7910 hc        1 MOL     -0.014283
    161 H71        -1.9710   -2.5540   -0.5320 hc        1 MOL      0.071573
    162 H72        -1.1810   -3.3220    0.8700 hc        1 MOL      0.071573
    163 N14        -5.4170   -0.4770    2.4380 n         1 MOL     -0.078830
    164 C55        -6.4210    0.1330    3.2840 c3        1 MOL     -0.190672
    165 H73        -6.0060    1.0240    3.7560 h1        1 MOL      0.068676
    166 H74        -7.2850    0.4120    2.6800 h1        1 MOL      0.068676
    167 H75        -6.7290   -0.5760    4.0530 h1        1 MOL      0.068676
    168 H76        -5.2600    0.0110    1.5750 hn        1 MOL      0.102010
    169 Ca1         1.9010    0.4220   -1.1680 Ca        1 MOL      1.768813
    170 O24         1.4090    2.6820   -2.4140 oh        1 MOL     -0.906304
    171 H77         1.8960    3.4490   -2.1010 ho        1 MOL      0.412193
    172 H78         0.7480    3.0430   -3.0070 ho        1 MOL      0.412193
@<TRIPOS>BOND
     1    1    2 1   
     2    1    4 1   
     3    1    5 1   
     4    1    6 1   
     5    2    3 2   
     6    2    7 1   
     7    7    8 1   
     8    7   15 1   
     9    8    9 1   
    10    8   11 1   
    11    8   16 1   
    12    9   10 2   
    13    9   19 1   
    14   11   12 1   
    15   11   17 1   
    16   11   18 1   
    17   12   13 1   
    18   12   14 1   
    19   19   20 1   
    20   19   24 1   
    21   20   21 1   
    22   20   23 1   
    23   20   25 1   
    24   21   22 2   
    25   21   29 1   
    26   23   26 1   
    27   23   27 1   
    28   23   28 1   
    29   29   30 1   
    30   29   37 1   
    31   30   31 1   
    32   30   33 1   
    33   30   38 1   
    34   31   32 2   
    35   31   41 1   
    36   33   34 1   
    37   33   39 1   
    38   33   40 1   
    39   34   35 1   
    40   34   36 1   
    41   41   42 1   
    42   41   45 1   
    43   42   43 1   
    44   42   46 1   
    45   42   47 1   
    46   43   44 2   
    47   43   48 1   
    48   48   49 1   
    49   48   56 1   
    50   49   50 1   
    51   49   52 1   
    52   49   57 1   
    53   50   51 2   
    54   50   62 1   
    55   52   53 1   
    56   52   58 1   
    57   52   59 1   
    58   53   54 1   
    59   53   55 2   
    60   54   60 1   
    61   54   61 1   
    62   62   63 1   
    63   62   66 1   
    64   63   64 1   
    65   63   67 1   
    66   63   68 1   
    67   64   65 2   
    68   64   69 1   
    69   69   70 1   
    70   69   76 1   
    71   70   71 1   
    72   70   73 1   
    73   70   77 1   
    74   71   72 2   
    75   71   83 1   
    76   73   74 1   
    77   73   75 1   
    78   73   78 1   
    79   74   80 1   
    80   74   81 1   
    81   74   82 1   
    82   75   79 1   
    83   83   84 1   
    84   83   91 1   
    85   84   85 1   
    86   84   87 1   
    87   84   92 1   
    88   85   86 2   
    89   85  102 1   
    90   87   88 1   
    91   87   89 1   
    92   87   93 1   
    93   88   90 1   
    94   88   94 1   
    95   88   95 1   
    96   89   96 1   
    97   89   97 1   
    98   89   98 1   
    99   90   99 1   
   100   90  100 1   
   101   90  101 1   
   102  102  103 1   
   103  102  110 1   
   104  103  104 1   
   105  103  106 1   
   106  103  111 1   
   107  104  105 2   
   108  104  114 1   
   109  106  107 1   
   110  106  112 1   
   111  106  113 1   
   112  107  108 1   
   113  107  109 1   
   114  114  115 1   
   115  114  125 1   
   116  115  116 1   
   117  115  118 1   
   118  115  126 1   
   119  116  117 2   
   120  116  134 1   
   121  118  119 1   
   122  118  127 1   
   123  118  128 1   
   124  119  120 ar  
   125  119  121 ar  
   126  120  122 ar  
   127  120  129 1   
   128  121  123 ar  
   129  121  130 1   
   130  122  124 ar  
   131  122  131 1   
   132  123  124 ar  
   133  123  132 1   
   134  124  133 1   
   135  134  135 1   
   136  134  140 1   
   137  135  136 1   
   138  135  138 1   
   139  135  141 1   
   140  136  137 2   
   141  136  148 1   
   142  138  139 1   
   143  138  142 1   
   144  138  143 1   
   145  139  140 1   
   146  139  144 1   
   147  139  145 1   
   148  140  146 1   
   149  140  147 1   
   150  148  149 1   
   151  148  157 1   
   152  149  150 1   
   153  149  152 1   
   154  149  158 1   
   155  150  151 2   
   156  150  163 1   
   157  152  153 1   
   158  152  159 1   
   159  152  160 1   
   160  153  154 1   
   161  153  161 1   
   162  153  162 1   
   163  154  155 1   
   164  154  156 1   
   165  163  164 1   
   166  163  168 1   
   167  164  165 1   
   168  164  166 1   
   169  164  167 1   
   170  170  171 1   
   171  170  172 1   
@<TRIPOS>SUBSTRUCTURE
     1 MOL         1 TEMP              0 ****  ****    0 ROOT
