@<TRIPOS>MOLECULE
MOL
  172   171     1     0     0
SMALL
resp


@<TRIPOS>ATOM
      1 C1         -0.5480   -3.7520    5.4710 c3        1 MOL     -0.328410
      2 C2          0.0330   -3.7710    4.0690 c         1 MOL      0.727393
      3 O1         -0.6440   -4.0640    3.0890 o         1 MOL     -0.559546
      4 H1         -0.1080   -4.5590    6.0580 hc        1 MOL      0.073911
      5 H2         -0.3240   -2.7960    5.9450 hc        1 MOL      0.073911
      6 H3         -1.6270   -3.8890    5.4190 hc        1 MOL      0.073911
      7 N1          1.3020   -3.5140    3.9640 n         1 MOL     -0.614560
      8 C3          2.0410   -3.2230    2.7220 c3        1 MOL      0.132705
      9 C4          2.1750   -4.5020    1.8080 c         1 MOL      0.579079
     10 O2          2.1230   -5.6880    2.2840 o         1 MOL     -0.569774
     11 C5          3.3730   -2.6640    3.0810 c3        1 MOL     -0.472491
     12 C6          4.2010   -2.2610    1.8530 c         1 MOL      0.691534
     13 O3          5.4210   -2.0820    2.0580 o         1 MOL     -0.633222
     14 O4          3.5760   -1.9880    0.8100 o         1 MOL     -0.633222
     15 H4          1.8110   -3.2560    4.8050 hn        1 MOL      0.304027
     16 H5          1.4560   -2.4400    2.2410 h1        1 MOL      0.149922
     17 H6          4.0340   -3.4440    3.4540 hc        1 MOL      0.109067
     18 H7          3.2410   -1.8240    3.7600 hc        1 MOL      0.109067
     19 N2          2.3070   -4.3100    0.4900 n         1 MOL     -0.441137
     20 C7          2.3360   -5.2910   -0.5930 c3        1 MOL      0.159303
     21 C8          3.5400   -5.0690   -1.5450 c         1 MOL      0.471333
     22 O5          3.7940   -5.9740   -2.4100 o         1 MOL     -0.570629
     23 C9          0.9640   -5.2720   -1.2900 c3        1 MOL     -0.274405
     24 H8          2.0850   -3.3810    0.1440 hn        1 MOL      0.386118
     25 H9          2.4440   -6.2510   -0.1050 h1        1 MOL      0.033324
     26 H10         0.7850   -4.2780   -1.7050 hc        1 MOL      0.079261
     27 H11         0.8130   -5.9120   -2.1600 hc        1 MOL      0.079261
     28 H12         0.2380   -5.3390   -0.4740 hc        1 MOL      0.079261
     29 N3          4.2500   -3.9400   -1.4180 n         1 MOL     -0.332908
     30 C10         5.2030   -3.5110   -2.4480 c3        1 MOL      0.029698
     31 C11         6.4900   -2.8980   -1.9840 c         1 MOL      0.557304
     32 O6          7.4940   -2.9440   -2.7100 o         1 MOL     -0.601187
     33 C12         4.3750   -2.4940   -3.3260 c3        1 MOL     -0.023166
     34 C13         3.5400   -1.4400   -2.5630 c         1 MOL      0.637535
     35 O7          4.2030   -0.8540   -1.6730 o         1 MOL     -0.657337
     36 O8          2.3380   -1.3310   -2.7420 o         1 MOL     -0.657337
     37 H13         3.8940   -3.2540   -0.7740 hn        1 MOL      0.117955
     38 H14         5.5330   -4.4180   -2.9450 h1        1 MOL      0.069450
     39 H15         3.7410   -3.0890   -3.9760 hc        1 MOL      0.004660
     40 H16         5.0220   -2.0190   -4.0590 hc        1 MOL      0.004660
     41 N4          6.5670   -2.2810   -0.8310 n         1 MOL     -0.281675
     42 C14         7.6410   -1.4220   -0.3960 c3        1 MOL     -0.037895
     43 C15         7.6480    0.1020   -0.6320 c         1 MOL      0.486708
     44 O9          8.6910    0.7600   -0.5530 o         1 MOL     -0.609371
     45 H17         5.7110   -2.0320   -0.3520 hn        1 MOL      0.123227
     46 H18         8.6240   -1.8560   -0.6050 h1        1 MOL      0.070058
     47 H19         7.5770   -1.3840    0.6910 h1        1 MOL      0.070058
     48 N5          6.5340    0.6800   -1.1000 n         1 MOL     -0.141837
     49 C16         6.4760    2.0200   -1.7260 c3        1 MOL     -0.046973
     50 C17         6.3490    3.2120   -0.7480 c         1 MOL      0.455282
     51 O10         6.3780    4.3380   -1.2100 o         1 MOL     -0.498581
     52 C18         5.2850    2.0270   -2.7080 c3        1 MOL     -0.172010
     53 C19         3.8750    2.0710   -2.0960 c         1 MOL      0.669815
     54 N6          2.9020    1.9170   -2.9990 n         1 MOL     -0.648641
     55 O11         3.7140    1.9650   -0.8970 o         1 MOL     -0.641220
     56 H20         5.7210    0.1150   -1.2880 hn        1 MOL      0.108377
     57 H21         7.3520    2.2280   -2.3430 h1        1 MOL      0.115823
     58 H22         5.3920    1.1600   -3.3630 hc        1 MOL      0.058599
     59 H23         5.3480    2.8870   -3.3720 hc        1 MOL      0.058599
     60 H24         3.1810    1.9000   -3.9730 hn        1 MOL      0.315543
     61 H25         1.9260    1.7730   -2.7840 hn        1 MOL      0.315543
     62 N7          6.2410    3.0020    0.5750 n         1 MOL     -0.302632
     63 C20         6.1540    4.0890    1.5470 c3        1 MOL     -0.094374
     64 C21         4.8520    4.8250    1.5950 c         1 MOL      0.446192
     65 O12         4.8420    5.9320    2.1070 o         1 MOL     -0.567748
     66 H26         6.2850    2.0860    1.0050 hn        1 MOL      0.249588
     67 H27         6.9880    4.7870    1.4590 h1        1 MOL      0.081948
     68 H28         6.2660    3.6760    2.5520 h1        1 MOL      0.081948
     69 N8          3.7930    4.2080    1.1140 n         1 MOL     -0.060937
     70 C22         2.4270    4.7410    1.0880 c3        1 MOL     -0.338320
     71 C23         1.3780    3.5550    1.2110 c         1 MOL      0.410245
     72 O13         1.4240    2.5660    0.4790 o         1 MOL     -0.384232
     73 C24         2.1040    5.5090   -0.2180 c3        1 MOL      0.652238
     74 C25         2.6480    6.9620   -0.4290 c3        1 MOL     -0.507979
     75 O14         2.4360    4.8130   -1.3530 oh        1 MOL     -0.612199
     76 H29         4.0190    3.2970    0.7430 hn        1 MOL      0.114317
     77 H30         2.3320    5.3670    1.9710 h1        1 MOL      0.115847
     78 H31         1.0390    5.7490   -0.2950 h1        1 MOL     -0.045271
     79 H32         2.1060    3.9200   -1.4150 ho        1 MOL      0.320200
     80 H33         3.7470    6.9810   -0.4310 hc        1 MOL      0.124355
     81 H34         2.2380    7.3140   -1.3670 hc        1 MOL      0.124355
     82 H35         2.2900    7.4960    0.4550 hc        1 MOL      0.124355
     83 N9          0.3830    3.7420    2.1060 n         1 MOL     -0.461124
     84 C26        -0.8110    2.9250    1.9790 c3        1 MOL     -0.269682
     85 C27        -1.4720    3.1130    0.5760 c         1 MOL      0.659688
     86 O15        -1.9820    4.2020    0.2990 o         1 MOL     -0.617463
     87 C28        -1.7300    3.0970    3.2200 c3        1 MOL      0.132705
     88 C29        -1.0170    2.4950    4.4670 c3        1 MOL      0.048822
     89 C30        -3.0550    2.3360    2.9410 c3        1 MOL     -0.200995
     90 C31        -1.6850    2.5410    5.8210 c3        1 MOL     -0.091764
     91 H36         0.2700    4.5570    2.6960 hn        1 MOL      0.324624
     92 H37        -0.3800    1.9290    2.0050 h1        1 MOL      0.230495
     93 H38        -1.8800    4.1430    3.4550 hc        1 MOL      0.010316
     94 H39        -0.0450    2.9690    4.5590 hc        1 MOL     -0.011281
     95 H40        -0.8670    1.4640    4.1680 hc        1 MOL     -0.011281
     96 H41        -3.6400    2.4250    3.8650 hc        1 MOL      0.044460
     97 H42        -3.6210    2.8440    2.1610 hc        1 MOL      0.044460
     98 H43        -2.9580    1.2970    2.6120 hc        1 MOL      0.044460
     99 H44        -2.6860    2.1050    5.8890 hc        1 MOL      0.016739
    100 H45        -1.0780    2.0590    6.5920 hc        1 MOL      0.016739
    101 H46        -1.7660    3.6080    6.0360 hc        1 MOL      0.016739
    102 N10        -1.6750    2.0880   -0.1730 n         1 MOL     -0.347194
    103 C32        -2.5950    1.8940   -1.2960 c3        1 MOL      0.035980
    104 C33        -4.0630    1.3990   -0.9300 c         1 MOL      0.449731
    105 O16        -4.3210    0.7550    0.0910 o         1 MOL     -0.301060
    106 C34        -1.9680    0.8930   -2.2650 c3        1 MOL     -0.245617
    107 C35        -0.5450    1.2380   -2.8150 c         1 MOL      0.705033
    108 O17         0.4660    0.9970   -2.0690 o         1 MOL     -0.656856
    109 O18        -0.4540    1.5950   -4.0200 o         1 MOL     -0.656856
    110 H47        -1.4010    1.2680    0.3650 hn        1 MOL      0.198276
    111 H48        -2.7240    2.7970   -1.8930 h1        1 MOL      0.081144
    112 H49        -2.6930    0.7540   -3.0790 hc        1 MOL      0.073611
    113 H50        -1.8930   -0.0350   -1.7110 hc        1 MOL      0.073611
    114 N11        -5.0410    1.5980   -1.7880 n         1 MOL     -0.629561
    115 C36        -6.4440    1.2650   -1.4650 c3        1 MOL      0.412554
    116 C37        -6.6960   -0.2540   -1.2260 c         1 MOL      0.270675
    117 O19        -7.4270   -0.5430   -0.2850 o         1 MOL     -0.444889
    118 C38        -7.5100    1.8170   -2.4840 c3        1 MOL     -0.216253
    119 C39        -8.9420    1.7440   -2.0260 ca        1 MOL      0.002732
    120 C40        -9.7390    0.6210   -2.1310 ca        1 MOL     -0.074914
    121 C41        -9.4410    2.8370   -1.3270 ca        1 MOL     -0.074914
    122 C42       -11.0610    0.5420   -1.6400 ca        1 MOL     -0.165062
    123 C43       -10.7970    2.8120   -0.8670 ca        1 MOL     -0.165062
    124 C44       -11.5940    1.6580   -0.9820 ca        1 MOL     -0.085932
    125 H51        -4.8790    2.0760   -2.6610 hn        1 MOL      0.312783
    126 H52        -6.7110    1.7250   -0.5150 h1        1 MOL      0.022535
    127 H53        -7.4100    1.3940   -3.4810 hc        1 MOL      0.067437
    128 H54        -7.2730    2.8770   -2.5970 hc        1 MOL      0.067437
    129 H55        -9.4260   -0.2060   -2.7480 ha        1 MOL      0.097228
    130 H56        -8.8850    3.7490   -1.1780 ha        1 MOL      0.097228
    131 H57       -11.5190   -0.4350   -1.6900 ha        1 MOL      0.120447
    132 H58       -11.2670    3.6820   -0.4400 ha        1 MOL      0.120447
    133 H59       -12.5860    1.5710   -0.5660 ha        1 MOL      0.104866
    134 N12        -5.9830   -1.1870   -1.9510 n         1 MOL     -0.088713
    135 C45        -6.1210   -2.6080   -1.6160 c3        1 MOL      0.006017
    136 C46        -5.7270   -3.0270   -0.1760 c         1 MOL      0.273937
    137 O20        -6.0610   -4.1390    0.2680 o         1 MOL     -0.498619
    138 C47        -5.2520   -3.1630   -2.6340 c3        1 MOL     -0.050371
    139 C48        -5.1970   -2.3570   -3.9690 c3        1 MOL     -0.112204
    140 C49        -5.4410   -0.9710   -3.2890 c3        1 MOL      0.131416
    141 H60        -7.1090   -3.0470   -1.7740 h1        1 MOL      0.059401
    142 H61        -4.2460   -3.0430   -2.2400 hc        1 MOL      0.040411
    143 H62        -5.4080   -4.2280   -2.8350 hc        1 MOL      0.040411
    144 H63        -4.2360   -2.3350   -4.4900 hc        1 MOL      0.049052
    145 H64        -5.9180   -2.5810   -4.7680 hc        1 MOL      0.049052
    146 H65        -4.4930   -0.4500   -3.3320 h1        1 MOL     -0.006290
    147 H66        -6.1040   -0.4430   -3.9750 h1        1 MOL     -0.006290
    148 N13        -4.8810   -2.2020    0.4380 n         1 MOL      0.031716
    149 C50        -4.1630   -2.4040    1.7040 c3        1 MOL     -0.039777
    150 C51        -4.8630   -1.5960    2.7800 c         1 MOL      0.435640
    151 O21        -5.0430   -2.1360    3.8190 o         1 MOL     -0.517546
    152 C52        -2.6940   -1.8240    1.5900 c3        1 MOL     -0.052153
    153 C53        -2.0230   -2.0350    0.2170 c3        1 MOL      0.067784
    154 C54        -0.5640   -1.4460    0.3460 c         1 MOL      0.605072
    155 O22         0.4140   -2.1740   -0.0310 o         1 MOL     -0.777166
    156 O23        -0.3110   -0.2610    0.7580 o         1 MOL     -0.777166
    157 H67        -4.6690   -1.3560   -0.0660 hn        1 MOL      0.007382
    158 H68        -4.1280   -3.4390    2.0320 h1        1 MOL      0.086239
    159 H69        -2.0250   -2.0320    2.4250 hc        1 MOL      0.041663
    160 H70        -2.8230   -0.7580    1.7300 hc        1 MOL      0.041663
    161 H71        -2.5960   -1.6530   -0.6340 hc        1 MOL      0.010461
    162 H72        -1.9820   -3.1030   -0.0080 hc        1 MOL      0.010461
    163 N14        -5.4650   -0.4010    2.4470 n         1 MOL     -0.173365
    164 C55        -6.3740    0.2450    3.3720 c3        1 MOL     -0.066783
    165 H73        -6.2580   -0.1950    4.3620 h1        1 MOL      0.039664
    166 H74        -6.1500    1.3100    3.4190 h1        1 MOL      0.039664
    167 H75        -7.4010    0.1040    3.0310 h1        1 MOL      0.039664
    168 H76        -5.2460    0.0640    1.5770 hn        1 MOL      0.118100
    169 Ca1         2.0820   -0.0960   -0.2080 Ca        1 MOL      1.720795
    170 O24         2.7560    0.5310    2.3290 oh        1 MOL     -0.854329
    171 H77         3.7080    0.5870    2.3980 ho        1 MOL      0.416607
    172 H78         2.4560    0.6040    3.2380 ho        1 MOL      0.416607
@<TRIPOS>BOND
     1    1    2 1   
     2    1    4 1   
     3    1    5 1   
     4    1    6 1   
     5    2    3 2   
     6    2    7 1   
     7    7    8 1   
     8    7   15 1   
     9    8    9 1   
    10    8   11 1   
    11    8   16 1   
    12    9   10 2   
    13    9   19 1   
    14   11   12 1   
    15   11   17 1   
    16   11   18 1   
    17   12   13 1   
    18   12   14 1   
    19   19   20 1   
    20   19   24 1   
    21   20   21 1   
    22   20   23 1   
    23   20   25 1   
    24   21   22 2   
    25   21   29 1   
    26   23   26 1   
    27   23   27 1   
    28   23   28 1   
    29   29   30 1   
    30   29   37 1   
    31   30   31 1   
    32   30   33 1   
    33   30   38 1   
    34   31   32 2   
    35   31   41 1   
    36   33   34 1   
    37   33   39 1   
    38   33   40 1   
    39   34   35 1   
    40   34   36 1   
    41   41   42 1   
    42   41   45 1   
    43   42   43 1   
    44   42   46 1   
    45   42   47 1   
    46   43   44 2   
    47   43   48 1   
    48   48   49 1   
    49   48   56 1   
    50   49   50 1   
    51   49   52 1   
    52   49   57 1   
    53   50   51 2   
    54   50   62 1   
    55   52   53 1   
    56   52   58 1   
    57   52   59 1   
    58   53   54 1   
    59   53   55 2   
    60   54   60 1   
    61   54   61 1   
    62   62   63 1   
    63   62   66 1   
    64   63   64 1   
    65   63   67 1   
    66   63   68 1   
    67   64   65 2   
    68   64   69 1   
    69   69   70 1   
    70   69   76 1   
    71   70   71 1   
    72   70   73 1   
    73   70   77 1   
    74   71   72 2   
    75   71   83 1   
    76   73   74 1   
    77   73   75 1   
    78   73   78 1   
    79   74   80 1   
    80   74   81 1   
    81   74   82 1   
    82   75   79 1   
    83   83   84 1   
    84   83   91 1   
    85   84   85 1   
    86   84   87 1   
    87   84   92 1   
    88   85   86 2   
    89   85  102 1   
    90   87   88 1   
    91   87   89 1   
    92   87   93 1   
    93   88   90 1   
    94   88   94 1   
    95   88   95 1   
    96   89   96 1   
    97   89   97 1   
    98   89   98 1   
    99   90   99 1   
   100   90  100 1   
   101   90  101 1   
   102  102  103 1   
   103  102  110 1   
   104  103  104 1   
   105  103  106 1   
   106  103  111 1   
   107  104  105 2   
   108  104  114 1   
   109  106  107 1   
   110  106  112 1   
   111  106  113 1   
   112  107  108 1   
   113  107  109 1   
   114  114  115 1   
   115  114  125 1   
   116  115  116 1   
   117  115  118 1   
   118  115  126 1   
   119  116  117 2   
   120  116  134 1   
   121  118  119 1   
   122  118  127 1   
   123  118  128 1   
   124  119  120 ar  
   125  119  121 ar  
   126  120  122 ar  
   127  120  129 1   
   128  121  123 ar  
   129  121  130 1   
   130  122  124 ar  
   131  122  131 1   
   132  123  124 ar  
   133  123  132 1   
   134  124  133 1   
   135  134  135 1   
   136  134  140 1   
   137  135  136 1   
   138  135  138 1   
   139  135  141 1   
   140  136  137 2   
   141  136  148 1   
   142  138  139 1   
   143  138  142 1   
   144  138  143 1   
   145  139  140 1   
   146  139  144 1   
   147  139  145 1   
   148  140  146 1   
   149  140  147 1   
   150  148  149 1   
   151  148  157 1   
   152  149  150 1   
   153  149  152 1   
   154  149  158 1   
   155  150  151 2   
   156  150  163 1   
   157  152  153 1   
   158  152  159 1   
   159  152  160 1   
   160  153  154 1   
   161  153  161 1   
   162  153  162 1   
   163  154  155 1   
   164  154  156 1   
   165  163  164 1   
   166  163  168 1   
   167  164  165 1   
   168  164  166 1   
   169  164  167 1   
   170  170  171 1   
   171  170  172 1   
@<TRIPOS>SUBSTRUCTURE
     1 MOL         1 TEMP              0 ****  ****    0 ROOT
