@<TRIPOS>MOLECULE
MOL
  179   176     1     0     0
SMALL
resp


@<TRIPOS>ATOM
      1 C1         -1.6940   -2.5870    5.5870 c3        1 MOL     -0.327044
      2 C2         -1.0910   -2.5090    4.1960 c         1 MOL      0.666870
      3 O1         -1.8380   -2.3810    3.1770 o         1 MOL     -0.615139
      4 H1         -1.3520   -3.4970    6.0800 hc        1 MOL      0.092735
      5 H2         -1.3810   -1.7200    6.1690 hc        1 MOL      0.092735
      6 H3         -2.7820   -2.6010    5.5130 hc        1 MOL      0.092735
      7 N1          0.2490   -2.5090    4.0210 n         1 MOL     -0.523439
      8 C3          0.9290   -2.5090    2.6800 c3        1 MOL      0.078020
      9 C4          1.0450   -3.9380    2.0720 c         1 MOL      0.443041
     10 O2          1.7840   -4.8140    2.5580 o         1 MOL     -0.520250
     11 C5          2.2980   -1.8320    2.9170 c3        1 MOL     -0.099072
     12 C6          2.9800   -1.4390    1.5340 c         1 MOL      0.833444
     13 O3          4.0490   -0.8720    1.5720 o         1 MOL     -0.810072
     14 O4          2.3640   -1.7030    0.4150 o         1 MOL     -0.810072
     15 H4          0.7640   -2.4140    4.8850 hn        1 MOL      0.296226
     16 H5          0.4160   -1.8120    2.0070 h1        1 MOL      0.090783
     17 H6          2.9120   -2.5030    3.5130 hc        1 MOL      0.028629
     18 H7          2.1630   -0.8420    3.3430 hc        1 MOL      0.028629
     19 N2          0.3430   -4.2490    0.9400 n         1 MOL     -0.265422
     20 C7          0.2060   -5.5710    0.3750 c3        1 MOL     -0.121567
     21 C8          1.3230   -5.8840   -0.6200 c         1 MOL      0.471502
     22 O5          1.6990   -7.0290   -0.7690 o         1 MOL     -0.563529
     23 C9         -1.1870   -5.7080   -0.3380 c3        1 MOL     -0.008519
     24 C10        -2.3300   -5.4590    0.6310 c3        1 MOL      0.086734
     25 C11        -3.6320   -5.4950   -0.1700 c3        1 MOL     -0.119134
     26 C12        -4.8390   -5.1260    0.5310 c3        1 MOL      0.028055
     27 N3         -5.4000   -6.1480    1.3500 n4        1 MOL     -0.278773
     28 H8          0.0220   -3.4710    0.3890 hn        1 MOL      0.253994
     29 H9          0.2180   -6.3230    1.1590 h1        1 MOL      0.121807
     30 H10        -1.2430   -6.7260   -0.7010 hc        1 MOL      0.026653
     31 H11        -1.2610   -5.0220   -1.1920 hc        1 MOL      0.026653
     32 H12        -2.3240   -4.4970    1.1410 hc        1 MOL     -0.017170
     33 H13        -2.3190   -6.2320    1.3930 hc        1 MOL     -0.017170
     34 H14        -3.6590   -6.4970   -0.6070 hc        1 MOL      0.040756
     35 H15        -3.4380   -4.8430   -1.0240 hc        1 MOL      0.040756
     36 H16        -5.6320   -5.0200   -0.2140 hx        1 MOL      0.097051
     37 H17        -4.6550   -4.2250    1.1180 hx        1 MOL      0.097051
     38 H18        -5.2590   -7.1010    1.0280 hn        1 MOL      0.306843
     39 H19        -4.8830   -6.1160    2.2220 hn        1 MOL      0.306843
     40 H20        -6.3800   -6.0710    1.5760 hn        1 MOL      0.306843
     41 N4          1.8660   -4.8930   -1.2710 n         1 MOL     -0.168095
     42 C13         3.0080   -5.0770   -2.1270 c3        1 MOL     -0.096497
     43 C14         4.3650   -4.5640   -1.5030 c         1 MOL      0.424153
     44 O6          5.4750   -4.7820   -2.0350 o         1 MOL     -0.526384
     45 C15         2.6860   -4.3860   -3.5100 c3        1 MOL     -0.206257
     46 C16         1.7600   -3.2140   -3.4990 c         1 MOL      0.760576
     47 O7          1.8920   -2.3690   -2.6210 o         1 MOL     -0.725836
     48 O8          0.8700   -3.0770   -4.3820 o         1 MOL     -0.725836
     49 H21         1.4600   -4.0080   -1.0230 hn        1 MOL      0.133718
     50 H22         3.1110   -6.1320   -2.3910 h1        1 MOL      0.158138
     51 H23         2.2320   -5.0930   -4.2060 hc        1 MOL      0.066464
     52 H24         3.6320   -4.0900   -3.9780 hc        1 MOL      0.066464
     53 N5          4.3550   -4.0390   -0.2590 n         1 MOL     -0.112892
     54 C17         5.5570   -3.6910    0.5050 c3        1 MOL     -0.413783
     55 C18         6.3220   -2.4860    0.0580 c         1 MOL      0.584240
     56 O9          7.4650   -2.2690    0.6160 o         1 MOL     -0.584030
     57 H25         3.4670   -3.7490    0.1460 hn        1 MOL      0.187279
     58 H26         6.3280   -4.4590    0.4220 h1        1 MOL      0.178159
     59 H27         5.2660   -3.5400    1.5420 h1        1 MOL      0.178159
     60 N6          5.7840   -1.7300   -0.9520 n         1 MOL     -0.277093
     61 C19         6.4000   -0.5580   -1.4750 c3        1 MOL     -0.052481
     62 C20         6.5670    0.6860   -0.5410 c         1 MOL      0.369017
     63 O10         7.0450    1.6700   -1.0360 o         1 MOL     -0.452784
     64 C21         5.6290   -0.2560   -2.7980 c3        1 MOL     -0.119736
     65 C22         4.4370    0.6780   -2.6270 c         1 MOL      0.456226
     66 N7          4.4050    1.7910   -3.3610 n         1 MOL     -0.592393
     67 O11         3.5990    0.4820   -1.7390 o         1 MOL     -0.561942
     68 H28         4.8500   -2.0650   -1.1620 hn        1 MOL      0.238930
     69 H29         7.4270   -0.7740   -1.7450 h1        1 MOL      0.123035
     70 H30         5.3410   -1.1540   -3.3450 hc        1 MOL      0.068506
     71 H31         6.3550    0.2700   -3.4240 hc        1 MOL      0.068506
     72 H32         5.1540    1.8250   -4.0310 hn        1 MOL      0.321865
     73 H33         3.5230    2.2630   -3.4730 hn        1 MOL      0.321865
     74 N8          6.2140    0.5850    0.7230 n         1 MOL     -0.195415
     75 C23         6.4190    1.6400    1.7690 c3        1 MOL     -0.522765
     76 C24         5.2270    2.5740    1.9400 c         1 MOL      0.646792
     77 O12         5.4300    3.5920    2.5950 o         1 MOL     -0.555154
     78 H34         5.6640   -0.1970    1.0540 hn        1 MOL      0.379670
     79 H35         7.2200    2.2550    1.3360 h1        1 MOL      0.215014
     80 H36         6.6630    1.1570    2.7100 h1        1 MOL      0.215014
     81 N9          4.1400    2.3400    1.2930 n         1 MOL     -0.450535
     82 C25         2.9680    3.2480    1.1780 c3        1 MOL      0.052910
     83 C26         1.5480    2.5310    1.1240 c         1 MOL      0.455041
     84 O13         1.4120    1.5240    0.4220 o         1 MOL     -0.583914
     85 C27         3.1590    4.1150   -0.0310 c3        1 MOL      0.063778
     86 C28         4.3110    5.0530    0.0440 ca        1 MOL     -0.084968
     87 C29         5.5890    4.7500   -0.4430 ca        1 MOL     -0.048524
     88 C30         4.1100    6.4030    0.4770 ca        1 MOL     -0.048524
     89 C31         6.5920    5.6630   -0.6690 ca        1 MOL     -0.350457
     90 C32         5.1180    7.3870    0.4060 ca        1 MOL     -0.350457
     91 C33         6.3810    6.9930   -0.1610 ca        1 MOL      0.430719
     92 O14         7.2800    7.9760   -0.4880 oh        1 MOL     -0.494369
     93 H37         3.9940    1.3790    0.9990 hn        1 MOL      0.389845
     94 H38         2.9850    3.8990    2.0550 h1        1 MOL      0.043175
     95 H39         2.2690    4.7250   -0.2090 hc        1 MOL      0.004618
     96 H40         3.2540    3.4220   -0.8640 hc        1 MOL      0.004618
     97 H41         5.7980    3.7030   -0.6310 ha        1 MOL      0.095355
     98 H42         3.1490    6.6880    0.8930 ha        1 MOL      0.095355
     99 H43         7.5300    5.4010   -1.1400 ha        1 MOL      0.168154
    100 H44         5.0080    8.4180    0.7140 ha        1 MOL      0.168154
    101 H45         6.8980    8.8540   -0.4140 ho        1 MOL      0.339807
    102 N10         0.4980    3.1600    1.6740 n         1 MOL     -0.428827
    103 C34        -0.9190    2.6820    1.5850 c3        1 MOL     -0.067699
    104 C35        -1.6990    3.5520    0.6140 c         1 MOL      0.541486
    105 O15        -1.7200    4.7510    0.8350 o         1 MOL     -0.590148
    106 C36        -1.5820    2.6920    2.9770 c3        1 MOL      0.046958
    107 C37        -0.5820    2.4290    4.1550 c3        1 MOL      0.196626
    108 C38        -2.6490    1.6570    2.9390 c3        1 MOL     -0.402273
    109 C39        -1.2670    2.6200    5.4730 c3        1 MOL     -0.254544
    110 H46         0.7390    3.9510    2.2590 hn        1 MOL      0.305764
    111 H47        -0.8270    1.6500    1.2440 h1        1 MOL      0.141804
    112 H48        -2.0940    3.6380    3.1280 hc        1 MOL      0.040056
    113 H49         0.3040    3.0720    4.0750 hc        1 MOL     -0.020847
    114 H50        -0.2250    1.3950    4.1420 hc        1 MOL     -0.020847
    115 H51        -3.2530    1.7910    2.0310 hc        1 MOL      0.108871
    116 H52        -2.2250    0.6640    3.0400 hc        1 MOL      0.108871
    117 H53        -3.2880    1.6660    3.8130 hc        1 MOL      0.108871
    118 H54        -1.8530    3.5290    5.3730 hc        1 MOL      0.055322
    119 H55        -1.9140    1.8090    5.8260 hc        1 MOL      0.055322
    120 H56        -0.4290    2.8170    6.1430 hc        1 MOL      0.055322
    121 N11        -2.4220    2.9840   -0.2870 n         1 MOL     -0.100950
    122 C40        -3.3360    3.7190   -1.1870 c3        1 MOL     -0.029742
    123 C41        -4.8110    3.6150   -0.7570 c         1 MOL      0.557792
    124 O16        -5.1880    2.7790    0.0690 o         1 MOL     -0.433234
    125 C42        -3.0340    3.3840   -2.6130 c3        1 MOL      0.081902
    126 O17        -3.2350    1.9600   -2.7010 oh        1 MOL     -0.572182
    127 H57        -2.2540    2.0050   -0.4860 hn        1 MOL      0.121949
    128 H58        -3.1390    4.7870   -1.0980 h1        1 MOL      0.061226
    129 H59        -1.9520    3.5020   -2.6730 h1        1 MOL      0.045489
    130 H60        -3.5090    3.9940   -3.3870 h1        1 MOL      0.045489
    131 H61        -2.5470    1.5320   -3.2110 ho        1 MOL      0.407996
    132 N12        -5.7710    4.3940   -1.2910 n         1 MOL     -0.587283
    133 C43        -7.1810    4.2720   -0.8290 c3        1 MOL      0.291765
    134 C44        -7.8500    2.8820   -1.1770 c         1 MOL      0.285843
    135 O18        -8.7480    2.4100   -0.4700 o         1 MOL     -0.465641
    136 C45        -7.9340    5.3690   -1.5410 c3        1 MOL     -0.275152
    137 H62        -5.5250    5.0750   -1.9920 hn        1 MOL      0.309137
    138 H63        -7.3920    4.4310    0.2290 h1        1 MOL      0.051745
    139 H64        -8.8530    5.5180   -0.9720 hc        1 MOL      0.079856
    140 H65        -7.4470    6.3430   -1.4330 hc        1 MOL      0.079856
    141 H66        -8.1380    5.0610   -2.5620 hc        1 MOL      0.079856
    142 N13        -7.4310    2.3030   -2.3200 n         1 MOL     -0.182359
    143 C46        -7.9050    0.9560   -2.6500 c3        1 MOL     -0.002547
    144 C47        -7.4230   -0.0380   -1.5730 c         1 MOL      0.412650
    145 O19        -8.1510   -0.9770   -1.1630 o         1 MOL     -0.530343
    146 C48        -7.5760    0.5790   -4.1110 c3        1 MOL     -0.206410
    147 H67        -6.9660    2.9200   -2.9620 hn        1 MOL      0.253563
    148 H68        -8.9900    0.9660   -2.4840 h1        1 MOL      0.102310
    149 H69        -7.8070   -0.4630   -4.3460 hc        1 MOL      0.066872
    150 H70        -8.1230    1.2610   -4.7550 hc        1 MOL      0.066872
    151 H71        -6.5340    0.8890   -4.2510 hc        1 MOL      0.066872
    152 N14        -6.2660    0.1660   -0.9650 n         1 MOL     -0.056917
    153 C49        -5.5640   -0.8820   -0.1670 c3        1 MOL     -0.028482
    154 C50        -6.0080   -0.6770    1.3170 c         1 MOL      0.364194
    155 O20        -6.1340   -1.6150    2.1300 o         1 MOL     -0.566622
    156 C51        -4.0480   -0.6280   -0.3790 c3        1 MOL     -0.005248
    157 C52        -2.9750   -1.4340    0.4480 c3        1 MOL      0.005746
    158 C53        -1.6090   -1.1690   -0.1270 c         1 MOL      0.542611
    159 O21        -0.6710   -1.9670   -0.3140 o         1 MOL     -0.696058
    160 O22        -1.3340    0.0280   -0.4060 o         1 MOL     -0.696058
    161 H72        -5.7860    1.0160   -1.1970 hn        1 MOL      0.020374
    162 H73        -5.8320   -1.9100   -0.4310 h1        1 MOL      0.046071
    163 H74        -3.8280    0.4390   -0.3330 hc        1 MOL     -0.008591
    164 H75        -3.8390   -0.8820   -1.4260 hc        1 MOL     -0.008591
    165 H76        -3.2300   -2.4850    0.5920 hc        1 MOL      0.048867
    166 H77        -2.9610   -1.0440    1.4590 hc        1 MOL      0.048867
    167 N15        -6.3150    0.5340    1.7010 n         1 MOL     -0.000120
    168 C54        -6.9860    0.8140    3.0000 c3        1 MOL     -0.255248
    169 H78        -6.7830    0.0010    3.6970 h1        1 MOL      0.107006
    170 H79        -6.6050    1.7490    3.4130 h1        1 MOL      0.107006
    171 H80        -8.0620    0.8970    2.8430 h1        1 MOL      0.107006
    172 H81        -6.1360    1.2600    1.0230 hn        1 MOL      0.097121
    173 Ca1         1.0210   -0.4380   -1.3190 Ca        1 MOL      1.762099
    174 O23        -0.7850   -1.5230   -3.0890 oh        1 MOL     -0.852637
    175 H82        -0.2950   -2.2800   -3.4170 ho        1 MOL      0.418935
    176 H83        -1.6150   -1.8910   -2.7830 ho        1 MOL      0.418935
    177 O24         0.4900    1.5590   -2.8460 oh        1 MOL     -0.852637
    178 H84         0.1510    1.4800   -3.7350 ho        1 MOL      0.418935
    179 H85         0.6500    2.5060   -2.7450 ho        1 MOL      0.418935
@<TRIPOS>BOND
     1    1    2 1   
     2    1    4 1   
     3    1    5 1   
     4    1    6 1   
     5    2    3 2   
     6    2    7 1   
     7    7    8 1   
     8    7   15 1   
     9    8    9 1   
    10    8   11 1   
    11    8   16 1   
    12    9   10 2   
    13    9   19 1   
    14   11   12 1   
    15   11   17 1   
    16   11   18 1   
    17   12   13 1   
    18   12   14 1   
    19   19   20 1   
    20   19   28 1   
    21   20   21 1   
    22   20   23 1   
    23   20   29 1   
    24   21   22 2   
    25   21   41 1   
    26   23   24 1   
    27   23   30 1   
    28   23   31 1   
    29   24   25 1   
    30   24   32 1   
    31   24   33 1   
    32   25   26 1   
    33   25   34 1   
    34   25   35 1   
    35   26   27 1   
    36   26   36 1   
    37   26   37 1   
    38   27   38 1   
    39   27   39 1   
    40   27   40 1   
    41   41   42 1   
    42   41   49 1   
    43   42   43 1   
    44   42   45 1   
    45   42   50 1   
    46   43   44 2   
    47   43   53 1   
    48   45   46 1   
    49   45   51 1   
    50   45   52 1   
    51   46   47 1   
    52   46   48 1   
    53   53   54 1   
    54   53   57 1   
    55   54   55 1   
    56   54   58 1   
    57   54   59 1   
    58   55   56 2   
    59   55   60 1   
    60   60   61 1   
    61   60   68 1   
    62   61   62 1   
    63   61   64 1   
    64   61   69 1   
    65   62   63 2   
    66   62   74 1   
    67   64   65 1   
    68   64   70 1   
    69   64   71 1   
    70   65   66 1   
    71   65   67 2   
    72   66   72 1   
    73   66   73 1   
    74   74   75 1   
    75   74   78 1   
    76   75   76 1   
    77   75   79 1   
    78   75   80 1   
    79   76   77 2   
    80   76   81 1   
    81   81   82 1   
    82   81   93 1   
    83   82   83 1   
    84   82   85 1   
    85   82   94 1   
    86   83   84 2   
    87   83  102 1   
    88   85   86 1   
    89   85   95 1   
    90   85   96 1   
    91   86   87 ar  
    92   86   88 ar  
    93   87   89 ar  
    94   87   97 1   
    95   88   90 ar  
    96   88   98 1   
    97   89   91 ar  
    98   89   99 1   
    99   90   91 ar  
   100   90  100 1   
   101   91   92 1   
   102   92  101 1   
   103  102  103 1   
   104  102  110 1   
   105  103  104 1   
   106  103  106 1   
   107  103  111 1   
   108  104  105 2   
   109  104  121 1   
   110  106  107 1   
   111  106  108 1   
   112  106  112 1   
   113  107  109 1   
   114  107  113 1   
   115  107  114 1   
   116  108  115 1   
   117  108  116 1   
   118  108  117 1   
   119  109  118 1   
   120  109  119 1   
   121  109  120 1   
   122  121  122 1   
   123  121  127 1   
   124  122  123 1   
   125  122  125 1   
   126  122  128 1   
   127  123  124 2   
   128  123  132 1   
   129  125  126 1   
   130  125  129 1   
   131  125  130 1   
   132  126  131 1   
   133  132  133 1   
   134  132  137 1   
   135  133  134 1   
   136  133  136 1   
   137  133  138 1   
   138  134  135 2   
   139  134  142 1   
   140  136  139 1   
   141  136  140 1   
   142  136  141 1   
   143  142  143 1   
   144  142  147 1   
   145  143  144 1   
   146  143  146 1   
   147  143  148 1   
   148  144  145 2   
   149  144  152 1   
   150  146  149 1   
   151  146  150 1   
   152  146  151 1   
   153  152  153 1   
   154  152  161 1   
   155  153  154 1   
   156  153  156 1   
   157  153  162 1   
   158  154  155 2   
   159  154  167 1   
   160  156  157 1   
   161  156  163 1   
   162  156  164 1   
   163  157  158 1   
   164  157  165 1   
   165  157  166 1   
   166  158  159 1   
   167  158  160 1   
   168  167  168 1   
   169  167  172 1   
   170  168  169 1   
   171  168  170 1   
   172  168  171 1   
   173  174  175 1   
   174  174  176 1   
   175  177  178 1   
   176  177  179 1   
@<TRIPOS>SUBSTRUCTURE
     1 MOL         1 TEMP              0 ****  ****    0 ROOT
