@<TRIPOS>MOLECULE
MOL
  189   185     1     0     0
SMALL
resp


@<TRIPOS>ATOM
      1 C1          0.8270   -4.7450    5.7920 c3        1 MOL     -0.392665
      2 C2          1.1180   -4.0270    4.4310 c         1 MOL      0.725964
      3 O1          1.0940   -2.8140    4.3790 o         1 MOL     -0.591730
      4 H1          1.1280   -5.7900    5.7230 hc        1 MOL      0.099494
      5 H2          1.3900   -4.2570    6.5880 hc        1 MOL      0.099494
      6 H3         -0.2390   -4.6890    6.0120 hc        1 MOL      0.099494
      7 N1          1.6060   -4.7100    3.3860 n         1 MOL     -0.656539
      8 C3          2.2170   -4.0430    2.2340 c3        1 MOL      0.449638
      9 C4          1.8990   -4.9710    1.0700 c         1 MOL      0.387949
     10 O2          2.0090   -6.1820    1.2040 o         1 MOL     -0.559805
     11 C5          3.6970   -3.7980    2.4370 c3        1 MOL     -0.316547
     12 C6          4.4750   -2.9710    1.3750 c         1 MOL      0.767317
     13 O3          5.6310   -2.5440    1.6460 o         1 MOL     -0.685170
     14 O4          3.8430   -2.4460    0.3950 o         1 MOL     -0.685170
     15 H4          1.5240   -5.7150    3.3840 hn        1 MOL      0.318315
     16 H5          1.7520   -3.0900    1.9660 h1        1 MOL     -0.040752
     17 H6          4.2520   -4.7350    2.4940 hc        1 MOL      0.064743
     18 H7          3.8360   -3.3600    3.4260 hc        1 MOL      0.064743
     19 N2          1.6550   -4.3560   -0.1340 n         1 MOL     -0.302825
     20 C7          1.3500   -5.0220   -1.3900 c3        1 MOL      0.002757
     21 C8          2.5100   -4.9270   -2.3690 c         1 MOL      0.669015
     22 O5          2.4700   -5.7400   -3.2810 o         1 MOL     -0.621375
     23 C9          0.0300   -4.4600   -2.0670 c3        1 MOL      0.325252
     24 C10        -1.1670   -4.6710   -1.0580 c3        1 MOL     -0.256202
     25 C11        -0.2670   -5.0750   -3.4320 c3        1 MOL     -0.275452
     26 C12        -2.5470   -4.3010   -1.6180 c3        1 MOL      0.095899
     27 H8          1.5900   -3.3480   -0.1180 hn        1 MOL      0.191779
     28 H9          1.2200   -6.1050   -1.3490 h1        1 MOL      0.025514
     29 H10         0.2780   -3.4450   -2.3560 hc        1 MOL      0.022795
     30 H11        -1.0150   -3.9430   -0.2560 hc        1 MOL      0.047367
     31 H12        -1.2620   -5.6950   -0.6930 hc        1 MOL      0.047367
     32 H13        -1.1990   -4.8310   -3.9520 hc        1 MOL      0.050715
     33 H14         0.4810   -4.7520   -4.1430 hc        1 MOL      0.050715
     34 H15        -0.2440   -6.1520   -3.2350 hc        1 MOL      0.050715
     35 H16        -3.3910   -4.3120   -0.9280 hc        1 MOL     -0.027042
     36 H17        -2.4500   -3.2720   -1.9590 hc        1 MOL     -0.027042
     37 H18        -2.7590   -4.9230   -2.4830 hc        1 MOL     -0.027042
     38 N3          3.3770   -3.9820   -2.2010 n         1 MOL     -0.594472
     39 C13         4.1830   -3.3700   -3.3660 c3        1 MOL      0.024086
     40 C14         5.6010   -2.8980   -2.9510 c         1 MOL      0.387344
     41 O6          6.4070   -2.6240   -3.8430 o         1 MOL     -0.537328
     42 C15         3.3920   -2.2230   -4.0520 c3        1 MOL     -0.188397
     43 C16         2.6110   -1.2400   -3.1370 c         1 MOL      0.673064
     44 O7          3.0960   -1.0070   -1.9890 o         1 MOL     -0.678424
     45 O8          1.5260   -0.7780   -3.5420 o         1 MOL     -0.678424
     46 H19         3.4160   -3.5220   -1.3070 hn        1 MOL      0.296022
     47 H20         4.2140   -4.1150   -4.1680 h1        1 MOL      0.105152
     48 H21         2.6590   -2.7050   -4.7000 hc        1 MOL      0.068073
     49 H22         4.0640   -1.6550   -4.6980 hc        1 MOL      0.068073
     50 N4          5.9390   -2.8120   -1.6490 n         1 MOL     -0.087756
     51 C17         7.2020   -2.5050   -1.1430 c3        1 MOL     -0.248085
     52 C18         7.7150   -1.0730   -1.4300 c         1 MOL      0.511493
     53 O9          8.8960   -0.7580   -1.4330 o         1 MOL     -0.593968
     54 H23         5.2270   -2.9420   -0.9440 hn        1 MOL      0.118451
     55 H24         7.8360   -3.2430   -1.6140 h1        1 MOL      0.107159
     56 H25         7.2550   -2.7120   -0.0720 h1        1 MOL      0.107159
     57 N5          6.7650   -0.1250   -1.6340 n         1 MOL     -0.199639
     58 C19         6.9650    1.2560   -2.1780 c3        1 MOL     -0.051611
     59 C20         7.1560    2.3390   -1.1090 c         1 MOL      0.455418
     60 O10         7.6490    3.4140   -1.4460 o         1 MOL     -0.569466
     61 C21         5.6430    1.5470   -2.9260 c3        1 MOL     -0.204714
     62 C22         4.3950    1.7820   -2.1150 c         1 MOL      0.889002
     63 O11         4.3590    1.3900   -0.9610 o         1 MOL     -0.736216
     64 O12         3.4990    2.3890   -2.7760 o         1 MOL     -0.736216
     65 H26         5.8040   -0.3630   -1.4330 hn        1 MOL      0.220373
     66 H27         7.8000    1.2910   -2.8900 h1        1 MOL      0.116153
     67 H28         5.3680    0.7250   -3.5890 hc        1 MOL      0.038247
     68 H29         5.8790    2.4440   -3.5060 hc        1 MOL      0.038247
     69 N6          6.8630    2.0640    0.1190 n         1 MOL     -0.241523
     70 C23         6.9590    2.8960    1.3460 c3        1 MOL      0.020472
     71 C24         5.7590    3.8450    1.5070 c         1 MOL      0.466602
     72 O13         5.9410    4.9080    2.0940 o         1 MOL     -0.583680
     73 H30         6.4970    1.1210    0.2130 hn        1 MOL      0.151940
     74 H31         7.9180    3.4150    1.4360 h1        1 MOL      0.049189
     75 H32         6.9320    2.3230    2.2720 h1        1 MOL      0.049189
     76 N7          4.5630    3.5020    1.0130 n         1 MOL     -0.182434
     77 C25         3.3030    4.2040    1.3030 c3        1 MOL      0.060676
     78 C26         2.1350    3.1910    1.6540 c         1 MOL      0.126527
     79 O14         2.2180    2.0870    1.2310 o         1 MOL     -0.264259
     80 C27         2.8620    5.0820    0.0930 c3        1 MOL     -0.060365
     81 C28         3.9280    6.2050   -0.0620 c3        1 MOL     -0.261121
     82 C29         3.3290    7.4840   -0.7300 c         1 MOL      0.636771
     83 N8          3.0800    7.4500   -2.0500 n         1 MOL     -0.825823
     84 O15         3.1330    8.5570   -0.1740 o         1 MOL     -0.573799
     85 H33         4.4180    2.6340    0.5200 hn        1 MOL      0.085117
     86 H34         3.5100    4.8490    2.1590 h1        1 MOL      0.044521
     87 H35         1.8940    5.4450    0.4520 hc        1 MOL      0.065464
     88 H36         2.8270    4.4940   -0.8210 hc        1 MOL      0.065464
     89 H37         4.7700    5.8280   -0.6450 hc        1 MOL      0.107251
     90 H38         4.2040    6.5450    0.9360 hc        1 MOL      0.107251
     91 H39         3.3510    6.6210   -2.5630 hn        1 MOL      0.369137
     92 H40         2.9260    8.3520   -2.4780 hn        1 MOL      0.369137
     93 N9          1.0890    3.7600    2.3350 n         1 MOL     -0.216941
     94 C30        -0.1390    3.0060    2.6170 c3        1 MOL      0.082385
     95 C31        -1.2810    3.4080    1.6250 c         1 MOL      0.489328
     96 O16        -1.5930    4.5850    1.4960 o         1 MOL     -0.575153
     97 C32        -0.5780    3.0870    4.0310 c3        1 MOL      0.209399
     98 C33        -1.6680    2.1200    4.3910 c3        1 MOL     -0.201460
     99 C34         0.5570    2.8710    5.0640 c3        1 MOL     -0.201460
    100 H41         1.1580    4.7130    2.6660 hn        1 MOL      0.243123
    101 H42         0.0240    1.9410    2.4020 h1        1 MOL      0.028468
    102 H43        -1.0150    4.0830    4.1250 hc        1 MOL     -0.045716
    103 H44        -2.5220    2.2360    3.7280 hc        1 MOL      0.035501
    104 H45        -1.3050    1.1030    4.2610 hc        1 MOL      0.035501
    105 H46        -2.0310    2.2210    5.4220 hc        1 MOL      0.035501
    106 H47         0.9420    1.8530    4.9320 hc        1 MOL      0.035501
    107 H48         1.3750    3.5730    4.9150 hc        1 MOL      0.035501
    108 H49         0.1790    2.9760    6.0780 hc        1 MOL      0.035501
    109 N10        -1.7790    2.3560    0.9350 n         1 MOL     -0.211185
    110 C35        -2.9700    2.4200    0.0720 c3        1 MOL      0.056858
    111 C36        -4.3010    2.2490    0.7870 c         1 MOL      0.323249
    112 O17        -4.3370    1.7210    1.9050 o         1 MOL     -0.415920
    113 C37        -2.7160    1.4650   -1.1120 c3        1 MOL     -0.073057
    114 C38        -3.8940    1.4380   -2.0850 c         1 MOL      0.587310
    115 N11        -4.3770    2.5430   -2.5560 n         1 MOL     -0.669839
    116 O18        -4.4990    0.3770   -2.3370 o         1 MOL     -0.562021
    117 H50        -1.4560    1.4650    1.2740 hn        1 MOL      0.034154
    118 H51        -3.0320    3.4120   -0.3670 h1        1 MOL      0.043799
    119 H52        -2.4890    0.4630   -0.7580 hc        1 MOL      0.074931
    120 H53        -1.8550    1.8260   -1.6670 hc        1 MOL      0.074931
    121 H54        -3.8970    3.4220   -2.4460 hn        1 MOL      0.316501
    122 H55        -5.2070    2.5100   -3.1340 hn        1 MOL      0.316501
    123 N12        -5.3960    2.4880    0.1620 n         1 MOL     -0.216275
    124 C39        -6.7650    2.0350    0.6000 c3        1 MOL      0.121799
    125 C40        -6.8240    0.4500    0.7500 c         1 MOL      0.282955
    126 O19        -7.4210    0.0260    1.7520 o         1 MOL     -0.536726
    127 C41        -7.9180    2.6610   -0.1700 c3        1 MOL     -0.113522
    128 C42        -7.6760    2.6430   -1.6700 ca        1 MOL      0.000325
    129 C43        -7.3190    3.8510   -2.3520 ca        1 MOL     -0.092292
    130 C44        -8.0170    1.4810   -2.4540 ca        1 MOL     -0.092292
    131 C45        -7.2380    3.9310   -3.7510 ca        1 MOL     -0.332635
    132 C46        -8.0110    1.5930   -3.8470 ca        1 MOL     -0.332635
    133 C47        -7.5370    2.7420   -4.5100 ca        1 MOL      0.430884
    134 O20        -7.4280    2.7720   -5.8610 oh        1 MOL     -0.566589
    135 H56        -5.3740    3.0260   -0.6850 hn        1 MOL      0.124024
    136 H57        -6.9120    2.4180    1.6090 h1        1 MOL      0.049007
    137 H58        -7.9930    3.7100    0.1140 hc        1 MOL      0.062146
    138 H59        -8.9070    2.2610    0.0790 hc        1 MOL      0.062146
    139 H60        -7.1960    4.7250   -1.7250 ha        1 MOL      0.106714
    140 H61        -8.3920    0.6040   -1.9540 ha        1 MOL      0.106714
    141 H62        -6.9090    4.8530   -4.2080 ha        1 MOL      0.151693
    142 H63        -8.2390    0.6570   -4.3430 ha        1 MOL      0.151693
    143 H64        -7.7760    1.9610   -6.2440 ho        1 MOL      0.414498
    144 N13        -6.3080   -0.3620   -0.1620 n         1 MOL      0.207892
    145 C48        -6.3480   -1.7930    0.0890 c3        1 MOL     -0.454040
    146 C49        -5.4390   -2.3060    1.2700 c         1 MOL      0.639666
    147 O21        -5.4320   -3.4710    1.6100 o         1 MOL     -0.547439
    148 C50        -6.1820   -2.5280   -1.2170 c3        1 MOL      0.181285
    149 C51        -7.1630   -2.1900   -2.3260 c3        1 MOL     -0.249407
    150 C52        -8.5640   -2.5600   -1.9430 c         1 MOL      0.683197
    151 O22        -9.5230   -1.8820   -2.2760 o         1 MOL     -0.707509
    152 O23        -8.7960   -3.5810   -1.1950 o         1 MOL     -0.707509
    153 H65        -6.0300   -0.0240   -1.0750 hn        1 MOL      0.224620
    154 H66        -7.3150   -1.9900    0.5490 h1        1 MOL      0.194206
    155 H67        -6.2240   -3.5890   -0.9900 hc        1 MOL     -0.005277
    156 H68        -5.1880   -2.2860   -1.6020 hc        1 MOL     -0.005277
    157 H69        -6.8110   -2.8220   -3.1350 hc        1 MOL      0.027253
    158 H70        -7.0480   -1.1240   -2.5430 hc        1 MOL      0.027253
    159 N14        -4.5780   -1.4090    1.8030 n         1 MOL     -0.247705
    160 C53        -3.5370   -1.6980    2.8050 c3        1 MOL      0.010863
    161 C54        -3.8280   -1.1790    4.1950 c         1 MOL      0.467452
    162 O24        -3.7130   -1.8330    5.2020 o         1 MOL     -0.552571
    163 C55        -2.2330   -1.0200    2.3220 c3        1 MOL      0.075593
    164 C56        -1.5690   -1.8250    1.1340 c3        1 MOL      0.058653
    165 C57        -0.3560   -1.0700    0.5250 c         1 MOL      0.719074
    166 O25         0.4570   -1.7730   -0.1050 o         1 MOL     -0.714672
    167 O26        -0.0900    0.0800    0.9090 o         1 MOL     -0.714672
    168 H71        -4.6910   -0.4700    1.4430 hn        1 MOL     -0.126598
    169 H72        -3.2010   -2.7250    2.8930 h1        1 MOL      0.050048
    170 H73        -1.5870   -1.1670    3.1870 hc        1 MOL      0.026063
    171 H74        -2.3910    0.0350    2.0510 hc        1 MOL      0.026063
    172 H75        -2.3290   -2.0100    0.3710 hc        1 MOL     -0.008387
    173 H76        -1.2850   -2.7950    1.5190 hc        1 MOL     -0.008387
    174 N15        -4.4290    0.0350    4.2990 n         1 MOL     -0.110405
    175 C58        -4.8390    0.5920    5.5660 c3        1 MOL     -0.186248
    176 H77        -5.3270    1.5530    5.4000 h1        1 MOL      0.068921
    177 H78        -5.5360   -0.0890    6.0550 h1        1 MOL      0.068921
    178 H79        -3.9640    0.7350    6.2020 h1        1 MOL      0.068921
    179 H80        -4.3390    0.6530    3.4960 hn        1 MOL      0.166750
    180 Ca1         2.5690   -0.1510    0.2960 Ca        1 MOL      1.757931
    181 O27         2.3320   -0.6970    2.8820 oh        1 MOL     -0.900982
    182 H81         2.0360   -1.3240    3.5490 ho        1 MOL      0.417235
    183 H82         2.8310   -0.0460    3.3800 ho        1 MOL      0.417235
    184 O28         4.9470   -0.0220    1.5790 oh        1 MOL     -0.900982
    185 H83         5.3450    0.3090    2.3860 ho        1 MOL      0.417235
    186 H84         5.3970   -0.8530    1.4200 ho        1 MOL      0.417235
    187 O29         1.3290    1.3970   -1.5560 oh        1 MOL     -0.900982
    188 H85         1.4170    0.7680   -2.2800 ho        1 MOL      0.417235
    189 H86         1.9680    2.0740   -1.7540 ho        1 MOL      0.417235
@<TRIPOS>BOND
     1    1    2 1   
     2    1    4 1   
     3    1    5 1   
     4    1    6 1   
     5    2    3 2   
     6    2    7 1   
     7    7    8 1   
     8    7   15 1   
     9    8    9 1   
    10    8   11 1   
    11    8   16 1   
    12    9   10 2   
    13    9   19 1   
    14   11   12 1   
    15   11   17 1   
    16   11   18 1   
    17   12   13 1   
    18   12   14 1   
    19   19   20 1   
    20   19   27 1   
    21   20   21 1   
    22   20   23 1   
    23   20   28 1   
    24   21   22 2   
    25   21   38 1   
    26   23   24 1   
    27   23   25 1   
    28   23   29 1   
    29   24   26 1   
    30   24   30 1   
    31   24   31 1   
    32   25   32 1   
    33   25   33 1   
    34   25   34 1   
    35   26   35 1   
    36   26   36 1   
    37   26   37 1   
    38   38   39 1   
    39   38   46 1   
    40   39   40 1   
    41   39   42 1   
    42   39   47 1   
    43   40   41 2   
    44   40   50 1   
    45   42   43 1   
    46   42   48 1   
    47   42   49 1   
    48   43   44 1   
    49   43   45 1   
    50   50   51 1   
    51   50   54 1   
    52   51   52 1   
    53   51   55 1   
    54   51   56 1   
    55   52   53 2   
    56   52   57 1   
    57   57   58 1   
    58   57   65 1   
    59   58   59 1   
    60   58   61 1   
    61   58   66 1   
    62   59   60 2   
    63   59   69 1   
    64   61   62 1   
    65   61   67 1   
    66   61   68 1   
    67   62   63 1   
    68   62   64 1   
    69   69   70 1   
    70   69   73 1   
    71   70   71 1   
    72   70   74 1   
    73   70   75 1   
    74   71   72 2   
    75   71   76 1   
    76   76   77 1   
    77   76   85 1   
    78   77   78 1   
    79   77   80 1   
    80   77   86 1   
    81   78   79 2   
    82   78   93 1   
    83   80   81 1   
    84   80   87 1   
    85   80   88 1   
    86   81   82 1   
    87   81   89 1   
    88   81   90 1   
    89   82   83 1   
    90   82   84 2   
    91   83   91 1   
    92   83   92 1   
    93   93   94 1   
    94   93  100 1   
    95   94   95 1   
    96   94   97 1   
    97   94  101 1   
    98   95   96 2   
    99   95  109 1   
   100   97   98 1   
   101   97   99 1   
   102   97  102 1   
   103   98  103 1   
   104   98  104 1   
   105   98  105 1   
   106   99  106 1   
   107   99  107 1   
   108   99  108 1   
   109  109  110 1   
   110  109  117 1   
   111  110  111 1   
   112  110  113 1   
   113  110  118 1   
   114  111  112 2   
   115  111  123 1   
   116  113  114 1   
   117  113  119 1   
   118  113  120 1   
   119  114  115 1   
   120  114  116 2   
   121  115  121 1   
   122  115  122 1   
   123  123  124 1   
   124  123  135 1   
   125  124  125 1   
   126  124  127 1   
   127  124  136 1   
   128  125  126 2   
   129  125  144 1   
   130  127  128 1   
   131  127  137 1   
   132  127  138 1   
   133  128  129 ar  
   134  128  130 ar  
   135  129  131 ar  
   136  129  139 1   
   137  130  132 ar  
   138  130  140 1   
   139  131  133 ar  
   140  131  141 1   
   141  132  133 ar  
   142  132  142 1   
   143  133  134 1   
   144  134  143 1   
   145  144  145 1   
   146  144  153 1   
   147  145  146 1   
   148  145  148 1   
   149  145  154 1   
   150  146  147 2   
   151  146  159 1   
   152  148  149 1   
   153  148  155 1   
   154  148  156 1   
   155  149  150 1   
   156  149  157 1   
   157  149  158 1   
   158  150  151 1   
   159  150  152 1   
   160  159  160 1   
   161  159  168 1   
   162  160  161 1   
   163  160  163 1   
   164  160  169 1   
   165  161  162 2   
   166  161  174 1   
   167  163  164 1   
   168  163  170 1   
   169  163  171 1   
   170  164  165 1   
   171  164  172 1   
   172  164  173 1   
   173  165  166 1   
   174  165  167 1   
   175  174  175 1   
   176  174  179 1   
   177  175  176 1   
   178  175  177 1   
   179  175  178 1   
   180  181  182 1   
   181  181  183 1   
   182  184  185 1   
   183  184  186 1   
   184  187  188 1   
   185  187  189 1   
@<TRIPOS>SUBSTRUCTURE
     1 MOL         1 TEMP              0 ****  ****    0 ROOT
