@<TRIPOS>MOLECULE
MOL
  179   176     1     0     0
SMALL
resp


@<TRIPOS>ATOM
      1 C1          2.5270    2.8630    4.5860 c3        1 MOL     -0.269084
      2 C2          1.7750    2.8990    3.1920 c         1 MOL      0.667567
      3 O1          2.4660    2.7880    2.1240 o         1 MOL     -0.607239
      4 H1          2.0190    2.1680    5.2550 hc        1 MOL      0.066526
      5 H2          3.5560    2.5350    4.4350 hc        1 MOL      0.066526
      6 H3          2.5240    3.8600    5.0270 hc        1 MOL      0.066526
      7 N1          0.4830    3.0610    3.2340 n         1 MOL     -0.762330
      8 C3         -0.4320    2.8250    2.1490 c3        1 MOL      0.541644
      9 C4         -0.8950    4.1630    1.5900 c         1 MOL      0.365687
     10 O2         -2.0460    4.6040    1.7260 o         1 MOL     -0.479789
     11 C5         -1.6020    2.0670    2.6810 c3        1 MOL     -0.222394
     12 C6         -2.6270    1.6730    1.5360 c         1 MOL      0.853176
     13 O3         -3.7670    1.2800    1.7970 o         1 MOL     -0.701650
     14 O4         -2.1970    1.8330    0.4040 o         1 MOL     -0.701650
     15 H4          0.0660    3.0370    4.1550 hn        1 MOL      0.362474
     16 H5         -0.0250    2.1630    1.3790 h1        1 MOL     -0.085480
     17 H6         -2.0750    2.7030    3.4310 hc        1 MOL      0.001303
     18 H7         -1.2710    1.1220    3.1150 hc        1 MOL      0.001303
     19 N2         -0.0100    4.7030    0.7790 n         1 MOL     -0.371185
     20 C7         -0.1490    6.1230    0.2610 c3        1 MOL      0.072794
     21 C8         -1.1470    6.2870   -0.8330 c         1 MOL      0.420983
     22 O5         -1.6570    7.3860   -1.0240 o         1 MOL     -0.562640
     23 C9          1.2620    6.8440   -0.0780 c3        1 MOL     -0.249711
     24 C10         2.1970    6.9690    1.0730 c3        1 MOL      0.209892
     25 C11         3.4850    7.7770    0.7640 c3        1 MOL     -0.034158
     26 C12         4.3260    8.1810    1.9190 c3        1 MOL      0.056065
     27 N3          4.9740    7.0570    2.6040 n4        1 MOL     -0.399935
     28 H8          0.8400    4.1610    0.6440 hn        1 MOL      0.351311
     29 H9         -0.5020    6.7780    1.0520 h1        1 MOL      0.094627
     30 H10         1.0910    7.8800   -0.3760 hc        1 MOL      0.080136
     31 H11         1.7170    6.2350   -0.8610 hc        1 MOL      0.080136
     32 H12         2.4930    6.0190    1.5080 hc        1 MOL     -0.051804
     33 H13         1.5850    7.4030    1.8650 hc        1 MOL     -0.051804
     34 H14         3.2140    8.7360    0.3130 hc        1 MOL      0.045268
     35 H15         4.1140    7.2610    0.0460 hc        1 MOL      0.045268
     36 H16         3.7710    8.8230    2.6050 hx        1 MOL      0.075922
     37 H17         5.1050    8.8540    1.5430 hx        1 MOL      0.075922
     38 H18         5.4530    7.3710    3.4320 hn        1 MOL      0.338830
     39 H19         4.3410    6.3650    2.9820 hn        1 MOL      0.338830
     40 H20         5.6760    6.5700    2.0500 hn        1 MOL      0.338830
     41 N4         -1.4750    5.2460   -1.5710 n         1 MOL     -0.145256
     42 C13        -2.5850    5.1970   -2.5320 c3        1 MOL     -0.163319
     43 C14        -3.9670    4.8030   -1.9960 c         1 MOL      0.487595
     44 O6         -4.9310    5.1550   -2.6220 o         1 MOL     -0.507004
     45 C15        -2.2870    4.1800   -3.5570 c3        1 MOL     -0.076377
     46 C16        -2.0540    2.8250   -2.8840 c         1 MOL      0.661158
     47 O7         -0.9120    2.5900   -2.3810 o         1 MOL     -0.692101
     48 O8         -3.0890    2.1020   -2.7310 o         1 MOL     -0.692101
     49 H21        -1.1400    4.3700   -1.1890 hn        1 MOL      0.104264
     50 H22        -2.6250    6.1350   -3.0790 h1        1 MOL      0.149365
     51 H23        -1.3840    4.4310   -4.1180 hc        1 MOL      0.021464
     52 H24        -3.1410    4.2450   -4.2240 hc        1 MOL      0.021464
     53 N5         -4.0690    4.4720   -0.7070 n         1 MOL     -0.020337
     54 C17        -5.3040    4.1350    0.0430 c3        1 MOL     -0.197370
     55 C18        -6.1160    3.0800   -0.5830 c         1 MOL      0.643437
     56 O9         -7.0190    3.4230   -1.4040 o         1 MOL     -0.553032
     57 H25        -3.2110    4.2920   -0.1880 hn        1 MOL      0.066952
     58 H26        -5.9290    5.0300    0.0620 h1        1 MOL      0.073664
     59 H27        -5.0570    3.9220    1.0740 h1        1 MOL      0.073664
     60 N6         -5.8240    1.8380   -0.2330 n         1 MOL     -0.380771
     61 C19        -6.6750    0.6850   -0.5360 c3        1 MOL     -0.009991
     62 C20        -6.8640   -0.4190    0.4610 c         1 MOL      0.478630
     63 O10        -7.9580   -1.1190    0.3870 o         1 MOL     -0.552601
     64 C21        -6.2630    0.1430   -1.9110 c3        1 MOL     -0.160846
     65 C22        -5.1500   -0.8540   -1.9650 c         1 MOL      0.548792
     66 N7         -5.4060   -2.0310   -2.4410 n         1 MOL     -0.631976
     67 O11        -4.0310   -0.6390   -1.4680 o         1 MOL     -0.604339
     68 H28        -4.9920    1.6950    0.3240 hn        1 MOL      0.150624
     69 H29        -7.7080    1.0390   -0.5120 h1        1 MOL      0.092223
     70 H30        -6.1200    0.9580   -2.6240 hc        1 MOL      0.088901
     71 H31        -7.1550   -0.3720   -2.2630 hc        1 MOL      0.088901
     72 H32        -6.2680   -2.2540   -2.9140 hn        1 MOL      0.333587
     73 H33        -4.6550   -2.7120   -2.4400 hn        1 MOL      0.333587
     74 N8         -5.9940   -0.5770    1.4240 n         1 MOL     -0.186014
     75 C23        -6.1970   -1.7180    2.3620 c3        1 MOL     -0.402598
     76 C24        -5.1490   -2.8740    2.2780 c         1 MOL      0.393333
     77 O12        -5.3260   -3.9520    2.8590 o         1 MOL     -0.471795
     78 H34        -5.1500   -0.0170    1.5190 hn        1 MOL      0.274406
     79 H35        -7.1500   -2.1880    2.1500 h1        1 MOL      0.190804
     80 H36        -6.3070   -1.2710    3.3530 h1        1 MOL      0.190804
     81 N9         -4.1340   -2.6940    1.4360 n         1 MOL     -0.096276
     82 C25        -2.9590   -3.5340    1.2770 c3        1 MOL      0.104556
     83 C26        -1.6410   -2.7560    1.0530 c         1 MOL      0.426969
     84 O13        -1.7500   -1.6140    0.4910 o         1 MOL     -0.696585
     85 C27        -3.2200   -4.4000   -0.0400 c3        1 MOL      0.136971
     86 C28        -4.4260   -5.3360    0.0640 ca        1 MOL     -0.061058
     87 C29        -5.7850   -4.8930    0.0020 ca        1 MOL     -0.169414
     88 C30        -4.1730   -6.7250    0.2050 ca        1 MOL     -0.169414
     89 C31        -6.7880   -5.8160    0.1350 ca        1 MOL     -0.107979
     90 C32        -5.2370   -7.6520    0.2820 ca        1 MOL     -0.107979
     91 C33        -6.5480   -7.2060    0.2360 ca        1 MOL      0.135345
     92 O14        -7.5950   -8.0150    0.6450 oh        1 MOL     -0.426909
     93 H37        -4.0680   -1.7890    0.9940 hn        1 MOL      0.180402
     94 H38        -2.9070   -4.1060    2.2020 h1        1 MOL      0.009627
     95 H39        -2.3630   -5.0250   -0.2820 hc        1 MOL     -0.030460
     96 H40        -3.3810   -3.6890   -0.8490 hc        1 MOL     -0.030460
     97 H41        -6.0850   -3.8780   -0.2190 ha        1 MOL      0.108994
     98 H42        -3.1930   -7.1680    0.2050 ha        1 MOL      0.108994
     99 H43        -7.8170   -5.4900    0.1880 ha        1 MOL      0.114871
    100 H44        -5.0280   -8.7050    0.4380 ha        1 MOL      0.114871
    101 H45        -7.3760   -8.9370    0.7910 ho        1 MOL      0.342776
    102 N10        -0.5220   -3.3570    1.3860 n         1 MOL     -0.267690
    103 C34         0.8660   -2.8290    1.1930 c3        1 MOL     -0.188571
    104 C35         1.8000   -3.8180    0.4980 c         1 MOL      0.467757
    105 O15         1.8330   -5.0290    0.8530 o         1 MOL     -0.540003
    106 C36         1.4550   -2.1110    2.4720 c3        1 MOL      0.061966
    107 C37         1.6450   -3.1010    3.6490 c3        1 MOL     -0.023310
    108 C38         0.5340   -0.9120    2.8070 c3        1 MOL     -0.533937
    109 C39         2.3280   -2.4640    4.8210 c3        1 MOL     -0.329881
    110 H46        -0.6700   -4.1840    1.9510 hn        1 MOL      0.254687
    111 H47         0.7440   -2.0450    0.4430 h1        1 MOL      0.280169
    112 H48         2.3980   -1.6470    2.2160 hc        1 MOL      0.050713
    113 H49         2.1810   -3.9280    3.1950 hc        1 MOL      0.059420
    114 H50         0.6590   -3.5100    3.9080 hc        1 MOL      0.059420
    115 H51        -0.4870   -1.1900    3.0630 hc        1 MOL      0.164991
    116 H52         1.0380   -0.4530    3.6550 hc        1 MOL      0.164991
    117 H53         0.5390   -0.0980    2.0950 hc        1 MOL      0.164991
    118 H54         3.0380   -1.6980    4.4860 hc        1 MOL      0.089172
    119 H55         1.5330   -1.9410    5.3490 hc        1 MOL      0.089172
    120 H56         2.7220   -3.2640    5.4460 hc        1 MOL      0.089172
    121 N11         2.5780   -3.4180   -0.5090 n         1 MOL     -0.361001
    122 C40         3.7410   -4.0840   -1.1040 c3        1 MOL      0.235249
    123 C41         5.0300   -3.7940   -0.3680 c         1 MOL      0.409295
    124 O16         5.0770   -2.8640    0.4170 o         1 MOL     -0.363612
    125 C42         3.8090   -3.7430   -2.5910 c3        1 MOL     -0.422542
    126 O17         4.5560   -2.5500   -2.8910 oh        1 MOL     -0.332276
    127 H57         2.3950   -2.5020   -0.9060 hn        1 MOL      0.244094
    128 H58         3.5850   -5.1590   -0.9990 h1        1 MOL      0.023681
    129 H59         2.7570   -3.5710   -2.8210 h1        1 MOL      0.173450
    130 H60         4.1100   -4.6070   -3.1930 h1        1 MOL      0.173450
    131 H61         4.4230   -2.4280   -3.8350 ho        1 MOL      0.369946
    132 N12         6.0520   -4.5900   -0.6580 n         1 MOL     -0.398798
    133 C43         7.3690   -4.3840   -0.0940 c3        1 MOL      0.072841
    134 C44         8.0350   -3.1710   -0.7310 c         1 MOL      0.384977
    135 O18         8.9770   -2.6360   -0.1640 o         1 MOL     -0.497305
    136 C45         8.1750   -5.6770   -0.3870 c3        1 MOL     -0.261621
    137 H62         5.8950   -5.3960   -1.2420 hn        1 MOL      0.271739
    138 H63         7.2100   -4.3160    0.9810 h1        1 MOL      0.123291
    139 H64         9.1770   -5.6970    0.0560 hc        1 MOL      0.091515
    140 H65         7.7110   -6.5320    0.1030 hc        1 MOL      0.091515
    141 H66         8.1720   -5.8550   -1.4620 hc        1 MOL      0.091515
    142 N13         7.5390   -2.6120   -1.8600 n         1 MOL     -0.179650
    143 C46         8.0540   -1.3500   -2.4550 c3        1 MOL      0.045382
    144 C47         7.3990   -0.1680   -1.7290 c         1 MOL      0.364710
    145 O19         8.0180    0.9420   -1.4780 o         1 MOL     -0.507329
    146 C48         7.9660   -1.2820   -3.9620 c3        1 MOL     -0.198611
    147 H67         6.8990   -3.0820   -2.4860 hn        1 MOL      0.151321
    148 H68         9.0990   -1.2510   -2.1480 h1        1 MOL      0.084676
    149 H69         6.8990   -1.3860   -4.1540 hc        1 MOL      0.063337
    150 H70         8.3060   -0.3030   -4.2920 hc        1 MOL      0.063337
    151 H71         8.5740   -2.0330   -4.4560 hc        1 MOL      0.063337
    152 N14         6.1150   -0.3250   -1.5240 n         1 MOL     -0.071470
    153 C49         5.4650    0.5940   -0.6090 c3        1 MOL     -0.131123
    154 C50         6.0180    0.6260    0.8030 c         1 MOL      0.404949
    155 O20         6.2790    1.6510    1.4120 o         1 MOL     -0.537826
    156 C51         3.9680    0.2050   -0.4510 c3        1 MOL      0.136453
    157 C52         3.0580    0.3500   -1.7240 c3        1 MOL     -0.118533
    158 C53         1.5960    0.0670   -1.2860 c         1 MOL      0.720471
    159 O21         0.9960   -0.9590   -1.6740 o         1 MOL     -0.748310
    160 O22         0.9710    0.8480   -0.5380 o         1 MOL     -0.748310
    161 H72         5.6230   -1.1850   -1.7000 hn        1 MOL      0.038154
    162 H73         5.5720    1.6260   -0.9600 h1        1 MOL      0.107897
    163 H74         3.5190    0.9010    0.2550 hc        1 MOL      0.022509
    164 H75         3.9030   -0.7960   -0.0380 hc        1 MOL      0.022509
    165 H76         3.3650   -0.3900   -2.4590 hc        1 MOL     -0.007831
    166 H77         3.2940    1.3440   -2.0880 hc        1 MOL     -0.007831
    167 N15         6.2430   -0.5570    1.4610 n         1 MOL     -0.042799
    168 C54         6.8880   -0.7470    2.7810 c3        1 MOL     -0.315180
    169 H78         6.3440   -1.5060    3.3440 h1        1 MOL      0.117090
    170 H79         7.9190   -1.0700    2.6400 h1        1 MOL      0.117090
    171 H80         6.8730    0.1940    3.3320 h1        1 MOL      0.117090
    172 H81         5.9680   -1.3630    0.9250 hn        1 MOL      0.064070
    173 Ca1        -1.4900    0.2670   -1.3840 Ca        1 MOL      1.760096
    174 O23        -1.4590   -2.3950   -2.4710 oh        1 MOL     -0.823797
    175 H82        -0.6820   -2.9390   -2.6030 ho        1 MOL      0.397740
    176 H83        -2.1650   -2.8650   -2.9120 ho        1 MOL      0.397740
    177 O24        -0.8710    0.0330   -4.0540 oh        1 MOL     -0.823797
    178 H84        -0.3820   -0.7840   -4.1240 ho        1 MOL      0.397740
    179 H85        -1.2910    0.1290   -4.9180 ho        1 MOL      0.397740
@<TRIPOS>BOND
     1    1    2 1   
     2    1    4 1   
     3    1    5 1   
     4    1    6 1   
     5    2    3 2   
     6    2    7 1   
     7    7    8 1   
     8    7   15 1   
     9    8    9 1   
    10    8   11 1   
    11    8   16 1   
    12    9   10 2   
    13    9   19 1   
    14   11   12 1   
    15   11   17 1   
    16   11   18 1   
    17   12   13 1   
    18   12   14 1   
    19   19   20 1   
    20   19   28 1   
    21   20   21 1   
    22   20   23 1   
    23   20   29 1   
    24   21   22 2   
    25   21   41 1   
    26   23   24 1   
    27   23   30 1   
    28   23   31 1   
    29   24   25 1   
    30   24   32 1   
    31   24   33 1   
    32   25   26 1   
    33   25   34 1   
    34   25   35 1   
    35   26   27 1   
    36   26   36 1   
    37   26   37 1   
    38   27   38 1   
    39   27   39 1   
    40   27   40 1   
    41   41   42 1   
    42   41   49 1   
    43   42   43 1   
    44   42   45 1   
    45   42   50 1   
    46   43   44 2   
    47   43   53 1   
    48   45   46 1   
    49   45   51 1   
    50   45   52 1   
    51   46   47 1   
    52   46   48 1   
    53   53   54 1   
    54   53   57 1   
    55   54   55 1   
    56   54   58 1   
    57   54   59 1   
    58   55   56 2   
    59   55   60 1   
    60   60   61 1   
    61   60   68 1   
    62   61   62 1   
    63   61   64 1   
    64   61   69 1   
    65   62   63 2   
    66   62   74 1   
    67   64   65 1   
    68   64   70 1   
    69   64   71 1   
    70   65   66 1   
    71   65   67 2   
    72   66   72 1   
    73   66   73 1   
    74   74   75 1   
    75   74   78 1   
    76   75   76 1   
    77   75   79 1   
    78   75   80 1   
    79   76   77 2   
    80   76   81 1   
    81   81   82 1   
    82   81   93 1   
    83   82   83 1   
    84   82   85 1   
    85   82   94 1   
    86   83   84 2   
    87   83  102 1   
    88   85   86 1   
    89   85   95 1   
    90   85   96 1   
    91   86   87 ar  
    92   86   88 ar  
    93   87   89 ar  
    94   87   97 1   
    95   88   90 ar  
    96   88   98 1   
    97   89   91 ar  
    98   89   99 1   
    99   90   91 ar  
   100   90  100 1   
   101   91   92 1   
   102   92  101 1   
   103  102  103 1   
   104  102  110 1   
   105  103  104 1   
   106  103  106 1   
   107  103  111 1   
   108  104  105 2   
   109  104  121 1   
   110  106  107 1   
   111  106  108 1   
   112  106  112 1   
   113  107  109 1   
   114  107  113 1   
   115  107  114 1   
   116  108  115 1   
   117  108  116 1   
   118  108  117 1   
   119  109  118 1   
   120  109  119 1   
   121  109  120 1   
   122  121  122 1   
   123  121  127 1   
   124  122  123 1   
   125  122  125 1   
   126  122  128 1   
   127  123  124 2   
   128  123  132 1   
   129  125  126 1   
   130  125  129 1   
   131  125  130 1   
   132  126  131 1   
   133  132  133 1   
   134  132  137 1   
   135  133  134 1   
   136  133  136 1   
   137  133  138 1   
   138  134  135 2   
   139  134  142 1   
   140  136  139 1   
   141  136  140 1   
   142  136  141 1   
   143  142  143 1   
   144  142  147 1   
   145  143  144 1   
   146  143  146 1   
   147  143  148 1   
   148  144  145 2   
   149  144  152 1   
   150  146  149 1   
   151  146  150 1   
   152  146  151 1   
   153  152  153 1   
   154  152  161 1   
   155  153  154 1   
   156  153  156 1   
   157  153  162 1   
   158  154  155 2   
   159  154  167 1   
   160  156  157 1   
   161  156  163 1   
   162  156  164 1   
   163  157  158 1   
   164  157  165 1   
   165  157  166 1   
   166  158  159 1   
   167  158  160 1   
   168  167  168 1   
   169  167  172 1   
   170  168  169 1   
   171  168  170 1   
   172  168  171 1   
   173  174  175 1   
   174  174  176 1   
   175  177  178 1   
   176  177  179 1   
@<TRIPOS>SUBSTRUCTURE
     1 MOL         1 TEMP              0 ****  ****    0 ROOT
