@<TRIPOS>MOLECULE
MOL
  175   173     1     0     0
SMALL
resp


@<TRIPOS>ATOM
      1 C1          0.1600    4.2220    5.5710 c3        1 MOL     -0.342390
      2 C2         -0.2890    4.0510    4.0490 c         1 MOL      0.691564
      3 O1          0.4300    4.2350    3.0230 o         1 MOL     -0.569566
      4 H1         -0.0820    3.3150    6.1240 hc        1 MOL      0.082331
      5 H2          1.2350    4.4000    5.6160 hc        1 MOL      0.082331
      6 H3         -0.3680    5.0680    6.0130 hc        1 MOL      0.082331
      7 N1         -1.5450    3.6640    3.9910 n         1 MOL     -0.641929
      8 C3         -2.1340    3.3140    2.6920 c3        1 MOL      0.068027
      9 C4         -2.3430    4.5820    1.7310 c         1 MOL      0.561221
     10 O2         -2.8650    5.6120    2.1830 o         1 MOL     -0.585167
     11 C5         -3.5540    2.8370    2.9770 c3        1 MOL     -0.404898
     12 C6         -4.3500    2.5880    1.6890 c         1 MOL      0.638955
     13 O3         -5.5450    3.0040    1.5870 o         1 MOL     -0.615943
     14 O4         -3.6830    2.0280    0.7760 o         1 MOL     -0.615943
     15 H4         -2.1110    3.9060    4.7980 hn        1 MOL      0.353435
     16 H5         -1.5500    2.5860    2.1240 h1        1 MOL      0.185161
     17 H6         -4.0380    3.6330    3.5580 hc        1 MOL      0.093147
     18 H7         -3.5040    1.9200    3.5740 hc        1 MOL      0.093147
     19 N2         -2.0940    4.4320    0.4590 n         1 MOL     -0.290896
     20 C7         -2.3770    5.4700   -0.5900 c3        1 MOL      0.168650
     21 C8         -3.2670    5.0030   -1.7790 c         1 MOL      0.558543
     22 O5         -3.5380    5.8330   -2.6120 o         1 MOL     -0.598587
     23 C9         -0.9900    5.8980   -1.0930 c3        1 MOL     -0.246897
     24 H8         -1.6440    3.5710    0.1770 hn        1 MOL      0.184658
     25 H9         -2.8600    6.3110   -0.0920 h1        1 MOL      0.032009
     26 H10        -1.1260    6.4760   -2.0080 hc        1 MOL      0.058125
     27 H11        -0.4770    6.5290   -0.3770 hc        1 MOL      0.058125
     28 H12        -0.3640    5.0600   -1.4040 hc        1 MOL      0.058125
     29 N3         -3.8200    3.7860   -1.8170 n         1 MOL     -0.364505
     30 C10        -4.7240    3.3180   -2.9280 c3        1 MOL      0.108908
     31 C11        -5.8530    2.3830   -2.4520 c         1 MOL      0.517029
     32 O6         -6.7110    2.0970   -3.2950 o         1 MOL     -0.583781
     33 C12        -3.9170    2.6160   -3.9930 c3        1 MOL     -0.072754
     34 C13        -3.1630    1.3460   -3.5540 c         1 MOL      0.688690
     35 O7         -2.7380    0.5960   -4.4080 o         1 MOL     -0.690651
     36 O8         -3.2490    0.8770   -2.4040 o         1 MOL     -0.690651
     37 H13        -3.6800    3.2870   -0.9430 hn        1 MOL      0.114008
     38 H14        -5.2120    4.1970   -3.3410 h1        1 MOL      0.054205
     39 H15        -3.1570    3.3150   -4.3280 hc        1 MOL      0.011279
     40 H16        -4.5580    2.4510   -4.8580 hc        1 MOL      0.011279
     41 N4         -5.9040    1.9470   -1.1880 n         1 MOL     -0.423021
     42 C14        -7.0690    1.2010   -0.7450 c3        1 MOL      0.038145
     43 C15        -7.0190   -0.2230   -1.1530 c         1 MOL      0.540897
     44 O9         -7.9720   -0.8610   -0.7520 o         1 MOL     -0.646290
     45 H17        -5.3240    2.4170   -0.5080 hn        1 MOL      0.259627
     46 H18        -8.0730    1.5750   -0.9510 h1        1 MOL      0.053520
     47 H19        -7.0290    1.1970    0.3400 h1        1 MOL      0.053520
     48 N5         -5.9670   -0.7920   -1.7340 n         1 MOL     -0.287131
     49 C16        -5.8670   -2.1620   -2.2020 c3        1 MOL     -0.034122
     50 C17        -5.7970   -3.3050   -1.1320 c         1 MOL      0.515196
     51 O10        -5.4510   -4.4020   -1.4000 o         1 MOL     -0.468844
     52 C18        -4.6830   -2.2490   -3.2180 c3        1 MOL     -0.257203
     53 C19        -3.3580   -2.3210   -2.5180 c         1 MOL      0.436294
     54 N6         -2.3670   -2.7030   -3.2860 n         1 MOL     -0.486436
     55 O11        -3.2680   -2.1150   -1.3510 o         1 MOL     -0.448137
     56 H20        -5.1930   -0.1930   -1.9730 hn        1 MOL      0.236825
     57 H21        -6.8360   -2.4790   -2.5790 h1        1 MOL      0.092871
     58 H22        -4.6870   -1.3450   -3.8280 hc        1 MOL      0.106593
     59 H23        -4.8610   -3.0630   -3.9270 hc        1 MOL      0.106593
     60 H24        -2.5440   -2.9590   -4.2490 hn        1 MOL      0.301852
     61 H25        -1.4380   -2.7140   -2.8940 hn        1 MOL      0.301852
     62 N7         -6.2320   -3.0220    0.1510 n         1 MOL     -0.377312
     63 C20        -6.3360   -4.0270    1.2500 c3        1 MOL     -0.163036
     64 C21        -4.9620   -4.5580    1.6800 c         1 MOL      0.501096
     65 O12        -4.9940   -5.5560    2.4060 o         1 MOL     -0.591237
     66 H26        -6.6350   -2.1280    0.3970 hn        1 MOL      0.308937
     67 H27        -7.0040   -4.8130    0.9070 h1        1 MOL      0.106318
     68 H28        -6.8210   -3.5660    2.1080 h1        1 MOL      0.106318
     69 N8         -3.8220   -4.0530    1.2080 n         1 MOL     -0.053478
     70 C22        -2.4400   -4.5180    1.3540 c3        1 MOL     -0.413166
     71 C23        -1.3690   -3.3580    1.5340 c         1 MOL      0.614148
     72 O13        -1.4880   -2.3260    0.8650 o         1 MOL     -0.449114
     73 C24        -1.9930   -5.3990    0.1910 c3        1 MOL      0.709233
     74 C25        -2.7060   -6.6940    0.0750 c3        1 MOL     -0.410395
     75 O14        -2.0590   -4.7940   -1.0170 oh        1 MOL     -0.637041
     76 H29        -4.0020   -3.3350    0.5290 hn        1 MOL      0.004845
     77 H30        -2.3510   -5.0970    2.2750 h1        1 MOL      0.102649
     78 H31        -0.9590   -5.6950    0.3410 h1        1 MOL     -0.100480
     79 H32        -1.7110   -3.9110   -0.8500 ho        1 MOL      0.346244
     80 H33        -3.7440   -6.6400   -0.2650 hc        1 MOL      0.094042
     81 H34        -2.1980   -7.2090   -0.7430 hc        1 MOL      0.094042
     82 H35        -2.5200   -7.3690    0.8980 hc        1 MOL      0.094042
     83 N9         -0.4380   -3.6550    2.4200 n         1 MOL     -0.456077
     84 C26         0.7420   -2.7010    2.3780 c3        1 MOL     -0.074303
     85 C27         1.5290   -3.0490    1.1220 c         1 MOL      0.485158
     86 O15         1.7730   -4.2060    0.8560 o         1 MOL     -0.549748
     87 C28         1.6390   -2.8120    3.6350 c3        1 MOL      0.225712
     88 C29         0.9140   -1.9740    4.6950 c3        1 MOL     -0.020259
     89 C30         3.1280   -2.5070    3.5710 c3        1 MOL     -0.342649
     90 C31         1.5130   -2.1230    6.1410 c3        1 MOL     -0.104578
     91 H36        -0.4140   -4.5330    2.9200 hn        1 MOL      0.310838
     92 H37         0.4440   -1.6700    2.2000 h1        1 MOL     -0.038487
     93 H38         1.5190   -3.8210    4.0480 hc        1 MOL     -0.001100
     94 H39        -0.1210   -2.3120    4.7930 hc        1 MOL      0.018132
     95 H40         0.9940   -0.8980    4.5040 hc        1 MOL      0.018132
     96 H41         3.6350   -3.1980    2.8980 hc        1 MOL      0.079288
     97 H42         3.2370   -1.4530    3.2840 hc        1 MOL      0.079288
     98 H43         3.6350   -2.5820    4.5330 hc        1 MOL      0.079288
     99 H44         2.5440   -1.7600    6.1010 hc        1 MOL      0.018583
    100 H45         1.0220   -1.5280    6.8990 hc        1 MOL      0.018583
    101 H46         1.6020   -3.1350    6.5240 hc        1 MOL      0.018583
    102 N10         2.0160   -2.0110    0.3990 n         1 MOL     -0.246324
    103 C32         2.7960   -2.1380   -0.8620 c3        1 MOL      0.005425
    104 C33         4.2090   -1.5940   -0.6630 c         1 MOL      0.436143
    105 O16         4.5010   -0.9190    0.3500 o         1 MOL     -0.397236
    106 C34         2.1520   -1.2900   -1.9580 c3        1 MOL     -0.268782
    107 C35         0.6540   -1.4600   -2.0650 c         1 MOL      0.807095
    108 O17         0.2660   -2.2680   -2.9570 o         1 MOL     -0.703842
    109 O18        -0.1380   -0.7660   -1.4150 o         1 MOL     -0.703842
    110 H47         1.7120   -1.0610    0.5930 hn        1 MOL      0.305178
    111 H48         2.8750   -3.1690   -1.1960 h1        1 MOL      0.084690
    112 H49         2.6080   -1.6260   -2.8920 hc        1 MOL      0.069219
    113 H50         2.4090   -0.2360   -1.9630 hc        1 MOL      0.069219
    114 N11         5.1060   -1.8510   -1.6510 n         1 MOL     -0.574294
    115 C36         6.4950   -1.3590   -1.4870 c3        1 MOL      0.240352
    116 C37         6.6640    0.0970   -1.2300 c         1 MOL      0.343059
    117 O19         7.3650    0.4650   -0.2720 o         1 MOL     -0.519004
    118 C38         7.4480   -1.9110   -2.6210 c3        1 MOL     -0.092344
    119 C39         8.9200   -1.6600   -2.3630 ca        1 MOL     -0.022126
    120 C40         9.5650   -0.5960   -2.8820 ca        1 MOL     -0.058255
    121 C41         9.6190   -2.4780   -1.4450 ca        1 MOL     -0.058255
    122 C42        10.8850   -0.3740   -2.6600 ca        1 MOL     -0.140500
    123 C43        10.9650   -2.3140   -1.0890 ca        1 MOL     -0.140500
    124 C44        11.5830   -1.2370   -1.7190 ca        1 MOL     -0.132035
    125 H51         4.8220   -2.5150   -2.3570 hn        1 MOL      0.341707
    126 H52         6.8800   -1.7960   -0.5600 h1        1 MOL      0.069055
    127 H53         7.1520   -1.4850   -3.5810 hc        1 MOL      0.042713
    128 H54         7.2980   -2.9740   -2.7710 hc        1 MOL      0.042713
    129 H55         9.0790    0.1100   -3.5400 ha        1 MOL      0.074951
    130 H56         9.0220   -3.2290   -0.9570 ha        1 MOL      0.074951
    131 H57        11.4040    0.4140   -3.1940 ha        1 MOL      0.123625
    132 H58        11.4450   -2.7980   -0.2460 ha        1 MOL      0.123625
    133 H59        12.5540   -0.9110   -1.3730 ha        1 MOL      0.107420
    134 N12         6.0080    1.0510   -1.9290 n         1 MOL      0.011319
    135 C45         6.0930    2.5230   -1.5170 c3        1 MOL     -0.199363
    136 C46         5.2810    2.9420   -0.2570 c         1 MOL      0.436315
    137 O20         5.3470    4.1210    0.1490 o         1 MOL     -0.522163
    138 C47         5.4340    3.2660   -2.7440 c3        1 MOL     -0.075902
    139 C48         4.6000    2.2320   -3.4590 c3        1 MOL     -0.016585
    140 C49         5.3170    0.9700   -3.2090 c3        1 MOL      0.141640
    141 H60         7.1230    2.8740   -1.5630 h1        1 MOL      0.134706
    142 H61         4.6980    3.9900   -2.3910 hc        1 MOL      0.051908
    143 H62         6.2520    3.7290   -3.3000 hc        1 MOL      0.051908
    144 H63         3.5620    2.1640   -3.1480 hc        1 MOL      0.029800
    145 H64         4.7060    2.4740   -4.5190 hc        1 MOL      0.029800
    146 H65         4.6520    0.1080   -3.2340 h1        1 MOL     -0.034281
    147 H66         6.0450    0.8470   -3.9990 h1        1 MOL     -0.034281
    148 N13         4.6150    1.9870    0.4200 n         1 MOL     -0.119010
    149 C50         3.9220    2.0870    1.7230 c3        1 MOL     -0.134718
    150 C51         4.7310    1.5110    2.8810 c         1 MOL      0.444348
    151 O21         4.8420    2.0680    3.9780 o         1 MOL     -0.568770
    152 C52         2.5010    1.4110    1.6770 c3        1 MOL     -0.113300
    153 C53         1.6250    2.1610    0.6210 c3        1 MOL     -0.048977
    154 C54         0.2340    1.5740    0.5270 c         1 MOL      0.420898
    155 O22        -0.6310    2.1290   -0.2460 o         1 MOL     -0.644171
    156 O23        -0.0690    0.6090    1.2630 o         1 MOL     -0.644171
    157 H67         4.6270    1.0680   -0.0240 hn        1 MOL      0.077715
    158 H68         3.7670    3.1390    1.9670 h1        1 MOL      0.122533
    159 H69         2.1570    1.4770    2.7140 hc        1 MOL      0.089743
    160 H70         2.5860    0.3480    1.4600 hc        1 MOL      0.089743
    161 H71         2.0910    2.1210   -0.3550 hc        1 MOL      0.089638
    162 H72         1.4840    3.2060    0.8910 hc        1 MOL      0.089638
    163 N14         5.4460    0.4400    2.6470 n         1 MOL     -0.048005
    164 C55         6.4360   -0.1460    3.5700 c3        1 MOL     -0.183880
    165 H73         5.9660   -0.9400    4.1510 h1        1 MOL      0.075843
    166 H74         7.2670   -0.5600    2.9980 h1        1 MOL      0.075843
    167 H75         6.8070    0.6270    4.2450 h1        1 MOL      0.075843
    168 H76         5.3060    0.0040    1.7460 hn        1 MOL      0.090071
    169 Ca1        -2.2330    0.0940   -0.0980 Ca        1 MOL      1.599042
    170 O24        -2.1510   -0.2170    2.8310 oh        1 MOL     -0.791651
    171 H77        -2.2760    0.0440    3.7540 ho        1 MOL      0.388604
    172 H78        -1.2780    0.1170    2.6090 ho        1 MOL      0.388604
    173 O25        -4.4390   -0.8410    1.2340 oh        1 MOL     -0.791651
    174 H79        -5.3220   -0.5520    1.4820 ho        1 MOL      0.388604
    175 H80        -3.9660   -0.8790    2.0720 ho        1 MOL      0.388604
@<TRIPOS>BOND
     1    1    2 1   
     2    1    4 1   
     3    1    5 1   
     4    1    6 1   
     5    2    3 2   
     6    2    7 1   
     7    7    8 1   
     8    7   15 1   
     9    8    9 1   
    10    8   11 1   
    11    8   16 1   
    12    9   10 2   
    13    9   19 1   
    14   11   12 1   
    15   11   17 1   
    16   11   18 1   
    17   12   13 1   
    18   12   14 1   
    19   19   20 1   
    20   19   24 1   
    21   20   21 1   
    22   20   23 1   
    23   20   25 1   
    24   21   22 2   
    25   21   29 1   
    26   23   26 1   
    27   23   27 1   
    28   23   28 1   
    29   29   30 1   
    30   29   37 1   
    31   30   31 1   
    32   30   33 1   
    33   30   38 1   
    34   31   32 2   
    35   31   41 1   
    36   33   34 1   
    37   33   39 1   
    38   33   40 1   
    39   34   35 1   
    40   34   36 1   
    41   41   42 1   
    42   41   45 1   
    43   42   43 1   
    44   42   46 1   
    45   42   47 1   
    46   43   44 2   
    47   43   48 1   
    48   48   49 1   
    49   48   56 1   
    50   49   50 1   
    51   49   52 1   
    52   49   57 1   
    53   50   51 2   
    54   50   62 1   
    55   52   53 1   
    56   52   58 1   
    57   52   59 1   
    58   53   54 1   
    59   53   55 2   
    60   54   60 1   
    61   54   61 1   
    62   62   63 1   
    63   62   66 1   
    64   63   64 1   
    65   63   67 1   
    66   63   68 1   
    67   64   65 2   
    68   64   69 1   
    69   69   70 1   
    70   69   76 1   
    71   70   71 1   
    72   70   73 1   
    73   70   77 1   
    74   71   72 2   
    75   71   83 1   
    76   73   74 1   
    77   73   75 1   
    78   73   78 1   
    79   74   80 1   
    80   74   81 1   
    81   74   82 1   
    82   75   79 1   
    83   83   84 1   
    84   83   91 1   
    85   84   85 1   
    86   84   87 1   
    87   84   92 1   
    88   85   86 2   
    89   85  102 1   
    90   87   88 1   
    91   87   89 1   
    92   87   93 1   
    93   88   90 1   
    94   88   94 1   
    95   88   95 1   
    96   89   96 1   
    97   89   97 1   
    98   89   98 1   
    99   90   99 1   
   100   90  100 1   
   101   90  101 1   
   102  102  103 1   
   103  102  110 1   
   104  103  104 1   
   105  103  106 1   
   106  103  111 1   
   107  104  105 2   
   108  104  114 1   
   109  106  107 1   
   110  106  112 1   
   111  106  113 1   
   112  107  108 1   
   113  107  109 1   
   114  114  115 1   
   115  114  125 1   
   116  115  116 1   
   117  115  118 1   
   118  115  126 1   
   119  116  117 2   
   120  116  134 1   
   121  118  119 1   
   122  118  127 1   
   123  118  128 1   
   124  119  120 ar  
   125  119  121 ar  
   126  120  122 ar  
   127  120  129 1   
   128  121  123 ar  
   129  121  130 1   
   130  122  124 ar  
   131  122  131 1   
   132  123  124 ar  
   133  123  132 1   
   134  124  133 1   
   135  134  135 1   
   136  134  140 1   
   137  135  136 1   
   138  135  138 1   
   139  135  141 1   
   140  136  137 2   
   141  136  148 1   
   142  138  139 1   
   143  138  142 1   
   144  138  143 1   
   145  139  140 1   
   146  139  144 1   
   147  139  145 1   
   148  140  146 1   
   149  140  147 1   
   150  148  149 1   
   151  148  157 1   
   152  149  150 1   
   153  149  152 1   
   154  149  158 1   
   155  150  151 2   
   156  150  163 1   
   157  152  153 1   
   158  152  159 1   
   159  152  160 1   
   160  153  154 1   
   161  153  161 1   
   162  153  162 1   
   163  154  155 1   
   164  154  156 1   
   165  163  164 1   
   166  163  168 1   
   167  164  165 1   
   168  164  166 1   
   169  164  167 1   
   170  170  171 1   
   171  170  172 1   
   172  173  174 1   
   173  173  175 1   
@<TRIPOS>SUBSTRUCTURE
     1 MOL         1 TEMP              0 ****  ****    0 ROOT
