@<TRIPOS>MOLECULE
MOL
  189   185     1     0     0
SMALL
resp


@<TRIPOS>ATOM
      1 C1          0.5660    3.5590   -5.7080 c3        1 MOL     -0.369686
      2 C2          0.8040    2.8360   -4.3860 c         1 MOL      0.816976
      3 O1         -0.1340    2.8280   -3.5790 o         1 MOL     -0.662325
      4 H1          0.7110    2.8620   -6.5330 hc        1 MOL      0.088177
      5 H2         -0.4520    3.9450   -5.7340 hc        1 MOL      0.088177
      6 H3          1.2710    4.3850   -5.8040 hc        1 MOL      0.088177
      7 N1          2.0230    2.3970   -4.0360 n         1 MOL     -0.646153
      8 C3          2.4100    2.1080   -2.6470 c3        1 MOL      0.222226
      9 C4          2.4950    3.3670   -1.8430 c         1 MOL      0.447914
     10 O2          3.1100    4.3420   -2.3430 o         1 MOL     -0.596091
     11 C5          3.8130    1.4530   -2.6770 c3        1 MOL     -0.141430
     12 C6          4.3220    0.8810   -1.3700 c         1 MOL      0.856431
     13 O3          5.5480    0.5100   -1.2930 o         1 MOL     -0.763595
     14 O4          3.5620    0.7400   -0.4090 o         1 MOL     -0.763595
     15 H4          2.7260    2.4550   -4.7560 hn        1 MOL      0.333765
     16 H5          1.6990    1.4550   -2.1450 h1        1 MOL     -0.045350
     17 H6          4.5470    2.0740   -3.1990 hc        1 MOL      0.029005
     18 H7          3.7430    0.5650   -3.3140 hc        1 MOL      0.029005
     19 N2          1.8280    3.5790   -0.7280 n         1 MOL     -0.071325
     20 C7          1.5950    4.8910   -0.1260 c3        1 MOL      0.005474
     21 C8          2.4790    5.0840    1.1900 c         1 MOL      0.405993
     22 O5          2.8950    6.1710    1.5200 o         1 MOL     -0.549051
     23 C9          0.0760    5.1990    0.0840 c3        1 MOL     -0.151088
     24 C10        -0.4810    5.6970   -1.2820 c3        1 MOL      0.071561
     25 C11        -1.9870    6.0000   -1.1270 c3        1 MOL      0.024673
     26 C12        -2.5490    6.9900   -2.1670 c3        1 MOL      0.056759
     27 N3         -3.7880    7.6610   -1.6960 n4        1 MOL     -0.417496
     28 H8          1.2240    2.8410   -0.4010 hn        1 MOL      0.192616
     29 H9          1.9040    5.6230   -0.8700 h1        1 MOL      0.055108
     30 H10        -0.0940    5.9480    0.8530 hc        1 MOL      0.038532
     31 H11        -0.4270    4.2510    0.2490 hc        1 MOL      0.038532
     32 H12        -0.2920    4.9700   -2.0740 hc        1 MOL      0.013467
     33 H13         0.0990    6.5820   -1.5330 hc        1 MOL      0.013467
     34 H14        -2.0660    6.5000   -0.1640 hc        1 MOL      0.012348
     35 H15        -2.5280    5.0520   -1.0750 hc        1 MOL      0.012348
     36 H16        -2.8010    6.4450   -3.0770 hx        1 MOL      0.071704
     37 H17        -1.7630    7.7130   -2.3660 hx        1 MOL      0.071704
     38 H18        -4.4950    7.0320   -1.3260 hn        1 MOL      0.340888
     39 H19        -3.5540    8.3090   -0.9620 hn        1 MOL      0.340888
     40 H20        -4.2140    8.0760   -2.5030 hn        1 MOL      0.340888
     41 N4          2.6390    3.9900    1.9100 n         1 MOL     -0.210338
     42 C13         3.5180    3.9530    3.1410 c3        1 MOL     -0.127057
     43 C14         4.9160    3.2960    2.9700 c         1 MOL      0.415668
     44 O6          5.7350    3.2740    3.8680 o         1 MOL     -0.495332
     45 C15         2.7160    3.2190    4.1430 c3        1 MOL      0.033794
     46 C16         2.0360    1.9030    3.7620 c         1 MOL      0.812924
     47 O7          2.2220    1.4370    2.6370 o         1 MOL     -0.745569
     48 O8          1.3510    1.4000    4.6400 o         1 MOL     -0.745569
     49 H21         2.2110    3.1300    1.6140 hn        1 MOL      0.134729
     50 H22         3.5900    4.9520    3.5480 h1        1 MOL      0.126811
     51 H23         1.8850    3.8580    4.4260 hc        1 MOL     -0.012056
     52 H24         3.2980    3.1080    5.0690 hc        1 MOL     -0.012056
     53 N5          5.2280    2.6700    1.7900 n         1 MOL     -0.019780
     54 C17         6.5370    2.0940    1.4670 c3        1 MOL     -0.257088
     55 C18         6.9190    0.7330    2.0420 c         1 MOL      0.711227
     56 O9          7.3920    0.6350    3.2040 o         1 MOL     -0.560821
     57 H25         4.5520    2.5120    1.0660 hn        1 MOL      0.056821
     58 H26         7.2690    2.8870    1.6170 h1        1 MOL      0.085571
     59 H27         6.5600    2.0450    0.3810 h1        1 MOL      0.085571
     60 N6          6.6410   -0.3780    1.3420 n         1 MOL     -0.651088
     61 C19         6.8380   -1.7740    1.7820 c3        1 MOL      0.083444
     62 C20         6.8490   -2.6920    0.5090 c         1 MOL      0.500967
     63 O10         7.1950   -3.8620    0.7020 o         1 MOL     -0.556450
     64 C21         5.7380   -2.2190    2.7900 c3        1 MOL     -0.192087
     65 C22         4.3150   -2.0910    2.2840 c         1 MOL      0.790360
     66 O11         4.0620   -2.3380    1.0940 o         1 MOL     -0.761141
     67 O12         3.3860   -1.6710    3.0320 o         1 MOL     -0.761141
     68 H28         6.1220   -0.2390    0.4940 hn        1 MOL      0.307645
     69 H29         7.7810   -1.9930    2.2710 h1        1 MOL      0.093799
     70 H30         5.7650   -1.6140    3.6920 hc        1 MOL      0.060746
     71 H31         5.9100   -3.2320    3.1510 hc        1 MOL      0.060746
     72 N7          6.7030   -2.1360   -0.7000 n         1 MOL     -0.365237
     73 C23         6.7620   -2.9400   -1.8780 c3        1 MOL     -0.110208
     74 C24         5.4160   -3.6470   -2.1570 c         1 MOL      0.468763
     75 O13         5.4560   -4.5390   -3.0340 o         1 MOL     -0.582834
     76 H32         6.2430   -1.2330   -0.7760 hn        1 MOL      0.326524
     77 H33         7.5750   -3.6600   -1.7520 h1        1 MOL      0.108814
     78 H34         7.0710   -2.2880   -2.6930 h1        1 MOL      0.108814
     79 N8          4.2640   -3.3530   -1.5720 n         1 MOL     -0.139831
     80 C25         2.9850   -4.0060   -1.9050 c3        1 MOL     -0.140022
     81 C26         1.7540   -3.0780   -1.7270 c         1 MOL      0.598021
     82 O14         1.8300   -1.9940   -1.1230 o         1 MOL     -0.612820
     83 C27         2.6760   -5.2710   -1.0450 c3        1 MOL      0.417133
     84 C28         3.5490   -6.5000   -1.3970 c3        1 MOL     -0.358427
     85 O15         2.7730   -4.9310    0.3170 oh        1 MOL     -0.661866
     86 H35         4.2720   -2.5970   -0.9080 hn        1 MOL      0.146861
     87 H36         2.9540   -4.4020   -2.9240 h1        1 MOL      0.078187
     88 H37         1.6500   -5.6200   -1.1230 h1        1 MOL      0.032335
     89 H38         3.6840   -4.8380    0.6030 ho        1 MOL      0.423561
     90 H39         3.3810   -7.2450   -0.6160 hc        1 MOL      0.090516
     91 H40         3.0840   -6.9270   -2.2880 hc        1 MOL      0.090516
     92 H41         4.5990   -6.2460   -1.5160 hc        1 MOL      0.090516
     93 N9          0.6310   -3.4330   -2.2950 n         1 MOL     -0.479515
     94 C29        -0.6030   -2.6210   -2.4500 c3        1 MOL      0.084495
     95 C30        -1.7170   -3.4310   -1.8040 c         1 MOL      0.424422
     96 O16        -1.8510   -4.6090   -2.1210 o         1 MOL     -0.531972
     97 C31        -0.8000   -2.2960   -3.9760 c3        1 MOL     -0.003807
     98 C32        -0.0140   -1.0440   -4.3450 c3        1 MOL      0.080803
     99 C33        -2.2690   -2.1240   -4.3210 c3        1 MOL     -0.143136
    100 C34        -0.0910   -0.5990   -5.8300 c3        1 MOL     -0.330285
    101 H42         0.5790   -4.2900   -2.8230 hn        1 MOL      0.269914
    102 H43        -0.5340   -1.6440   -1.9520 h1        1 MOL      0.057620
    103 H44        -0.3790   -3.1110   -4.5650 hc        1 MOL      0.053670
    104 H45         1.0180   -1.3210   -4.1140 hc        1 MOL      0.023605
    105 H46        -0.2200   -0.2210   -3.6530 hc        1 MOL      0.023605
    106 H47        -2.7020   -1.4030   -3.6280 hc        1 MOL      0.024413
    107 H48        -2.5950   -1.8390   -5.3280 hc        1 MOL      0.024413
    108 H49        -2.8130   -3.0350   -4.0550 hc        1 MOL      0.024413
    109 H50         0.7000    0.1370   -6.0040 hc        1 MOL      0.084177
    110 H51        -0.0070   -1.4510   -6.5110 hc        1 MOL      0.084177
    111 H52        -1.0320   -0.1100   -6.0610 hc        1 MOL      0.084177
    112 N10        -2.4280   -2.8500   -0.8440 n         1 MOL     -0.100809
    113 C35        -3.5060   -3.2720    0.0050 c3        1 MOL     -0.034307
    114 C36        -4.8130   -2.5060   -0.2430 c         1 MOL      0.443414
    115 O17        -4.8820   -1.6500   -1.1340 o         1 MOL     -0.348510
    116 C37        -3.0620   -3.1520    1.4790 c3        1 MOL      0.274254
    117 C38        -1.9340   -4.0800    1.9470 c3        1 MOL     -0.269356
    118 O18        -2.7190   -1.8250    1.8000 oh        1 MOL     -0.612026
    119 H53        -2.1060   -1.8910   -0.7770 hn        1 MOL      0.071118
    120 H54        -3.8340   -4.2380   -0.3520 h1        1 MOL      0.053586
    121 H55        -3.9310   -3.4960    2.0480 h1        1 MOL     -0.022409
    122 H56        -1.8580   -1.6280    1.4310 ho        1 MOL      0.354396
    123 H57        -1.7230   -4.0260    3.0150 hc        1 MOL      0.077734
    124 H58        -2.1630   -5.1360    1.7690 hc        1 MOL      0.077734
    125 H59        -1.0130   -3.8920    1.3970 hc        1 MOL      0.077734
    126 N11        -5.8860   -2.9920    0.4060 n         1 MOL     -0.312046
    127 C39        -7.2540   -2.3800    0.3470 c3        1 MOL     -0.098103
    128 C40        -7.1890   -0.8990    0.2590 c         1 MOL      0.443422
    129 O19        -7.6840   -0.3440   -0.7390 o         1 MOL     -0.514447
    130 C41        -8.1480   -2.6520    1.5230 c3        1 MOL      0.382129
    131 C42        -8.6430   -4.1200    1.5580 c3        1 MOL     -0.313322
    132 O20        -7.5470   -2.3120    2.7590 oh        1 MOL     -0.722931
    133 H60        -5.7860   -3.8560    0.9140 hn        1 MOL      0.266690
    134 H61        -7.6920   -2.7540   -0.5740 h1        1 MOL      0.123497
    135 H62        -9.0550   -2.0670    1.3980 h1        1 MOL      0.024415
    136 H63        -8.2000   -2.4370    3.4550 ho        1 MOL      0.419568
    137 H64        -7.7770   -4.7850    1.6320 hc        1 MOL      0.086248
    138 H65        -9.3140   -4.2950    2.4010 hc        1 MOL      0.086248
    139 H66        -9.1440   -4.2850    0.6090 hc        1 MOL      0.086248
    140 N12        -6.6060   -0.2420    1.2320 n         1 MOL     -0.382696
    141 C43        -6.2900    1.1930    1.4100 c3        1 MOL      0.086715
    142 C44        -5.4340    1.8400    0.2740 c         1 MOL      0.415173
    143 O21        -5.0300    3.0460    0.4130 o         1 MOL     -0.602121
    144 C45        -5.5250    1.5080    2.7510 c3        1 MOL     -0.187381
    145 C46        -5.9270    0.5580    3.8940 c3        1 MOL      0.095323
    146 C47        -5.1990    0.9140    5.2530 c3        1 MOL     -0.056270
    147 C48        -5.5060    0.0210    6.4880 c3        1 MOL      0.164550
    148 N13        -4.8840   -1.3430    6.4350 n4        1 MOL     -0.611652
    149 H67        -6.2950   -0.8230    1.9970 hn        1 MOL      0.294307
    150 H68        -7.2330    1.7380    1.4550 h1        1 MOL      0.083057
    151 H69        -5.8470    2.5230    2.9950 hc        1 MOL      0.088021
    152 H70        -4.4580    1.4390    2.5400 hc        1 MOL      0.088021
    153 H71        -5.6670   -0.4640    3.6160 hc        1 MOL     -0.006547
    154 H72        -6.9970    0.6200    4.0930 hc        1 MOL     -0.006547
    155 H73        -5.5310    1.9070    5.5410 hc        1 MOL      0.053232
    156 H74        -4.1190    0.9280    5.0960 hc        1 MOL      0.053232
    157 H75        -6.5800   -0.0050    6.6420 hx        1 MOL      0.044214
    158 H76        -5.1230    0.5400    7.3640 hx        1 MOL      0.044214
    159 H77        -4.0910   -1.3370    5.8130 hn        1 MOL      0.405007
    160 H78        -4.5530   -1.4970    7.3690 hn        1 MOL      0.405007
    161 H79        -5.6350   -1.9470    6.1240 hn        1 MOL      0.405007
    162 N14        -4.9740    1.0830   -0.7240 n         1 MOL     -0.059554
    163 C49        -4.0150    1.5270   -1.7070 c3        1 MOL     -0.030957
    164 C50        -4.6360    1.2890   -3.0770 c         1 MOL      0.358659
    165 O22        -4.5750    2.1050   -3.9390 o         1 MOL     -0.527371
    166 C51        -2.7180    0.7920   -1.4410 c3        1 MOL      0.336907
    167 C52        -2.0290    1.2130   -0.1320 c3        1 MOL     -0.135396
    168 C53        -0.6680    0.6210    0.1740 c         1 MOL      0.682332
    169 O23        -0.5930   -0.5440    0.4740 o         1 MOL     -0.646254
    170 O24         0.3190    1.3130    0.0430 o         1 MOL     -0.646254
    171 H80        -5.2610    0.1470   -0.9510 hn        1 MOL     -0.123926
    172 H81        -3.8410    2.5990   -1.6780 h1        1 MOL      0.094095
    173 H82        -2.0510    1.0050   -2.2780 hc        1 MOL     -0.042561
    174 H83        -2.7870   -0.2980   -1.4870 hc        1 MOL     -0.042561
    175 H84        -2.6540    1.1230    0.7500 hc        1 MOL      0.009556
    176 H85        -1.9400    2.2940   -0.2440 hc        1 MOL      0.009556
    177 N15        -5.2950    0.1500   -3.2780 n         1 MOL      0.007694
    178 C54        -6.0320   -0.2240   -4.4430 c3        1 MOL     -0.311239
    179 H86        -5.5930   -1.1210   -4.8770 h1        1 MOL      0.110017
    180 H87        -7.0690   -0.4230   -4.1700 h1        1 MOL      0.110017
    181 H88        -5.9970    0.5860   -5.1720 h1        1 MOL      0.110017
    182 H89        -5.1950   -0.5660   -2.5800 hn        1 MOL      0.167557
    183 Ca1         1.8920   -0.5990    1.0850 Ca        1 MOL      1.777132
    184 O25         0.4350   -0.6970    3.2730 oh        1 MOL     -0.853073
    185 H90         0.4080   -1.4630    3.8490 ho        1 MOL      0.394817
    186 H91         0.6810    0.0320    3.8540 ho        1 MOL      0.394817
    187 O26         1.2840   -3.1160    1.7070 oh        1 MOL     -0.853073
    188 H92         2.0310   -3.4680    1.2180 ho        1 MOL      0.394817
    189 H93         1.1880   -3.7180    2.4380 ho        1 MOL      0.394817
@<TRIPOS>BOND
     1    1    2 1   
     2    1    4 1   
     3    1    5 1   
     4    1    6 1   
     5    2    3 2   
     6    2    7 1   
     7    7    8 1   
     8    7   15 1   
     9    8    9 1   
    10    8   11 1   
    11    8   16 1   
    12    9   10 2   
    13    9   19 1   
    14   11   12 1   
    15   11   17 1   
    16   11   18 1   
    17   12   13 1   
    18   12   14 1   
    19   19   20 1   
    20   19   28 1   
    21   20   21 1   
    22   20   23 1   
    23   20   29 1   
    24   21   22 2   
    25   21   41 1   
    26   23   24 1   
    27   23   30 1   
    28   23   31 1   
    29   24   25 1   
    30   24   32 1   
    31   24   33 1   
    32   25   26 1   
    33   25   34 1   
    34   25   35 1   
    35   26   27 1   
    36   26   36 1   
    37   26   37 1   
    38   27   38 1   
    39   27   39 1   
    40   27   40 1   
    41   41   42 1   
    42   41   49 1   
    43   42   43 1   
    44   42   45 1   
    45   42   50 1   
    46   43   44 2   
    47   43   53 1   
    48   45   46 1   
    49   45   51 1   
    50   45   52 1   
    51   46   47 1   
    52   46   48 1   
    53   53   54 1   
    54   53   57 1   
    55   54   55 1   
    56   54   58 1   
    57   54   59 1   
    58   55   56 2   
    59   55   60 1   
    60   60   61 1   
    61   60   68 1   
    62   61   62 1   
    63   61   64 1   
    64   61   69 1   
    65   62   63 2   
    66   62   72 1   
    67   64   65 1   
    68   64   70 1   
    69   64   71 1   
    70   65   66 1   
    71   65   67 1   
    72   72   73 1   
    73   72   76 1   
    74   73   74 1   
    75   73   77 1   
    76   73   78 1   
    77   74   75 2   
    78   74   79 1   
    79   79   80 1   
    80   79   86 1   
    81   80   81 1   
    82   80   83 1   
    83   80   87 1   
    84   81   82 2   
    85   81   93 1   
    86   83   84 1   
    87   83   85 1   
    88   83   88 1   
    89   84   90 1   
    90   84   91 1   
    91   84   92 1   
    92   85   89 1   
    93   93   94 1   
    94   93  101 1   
    95   94   95 1   
    96   94   97 1   
    97   94  102 1   
    98   95   96 2   
    99   95  112 1   
   100   97   98 1   
   101   97   99 1   
   102   97  103 1   
   103   98  100 1   
   104   98  104 1   
   105   98  105 1   
   106   99  106 1   
   107   99  107 1   
   108   99  108 1   
   109  100  109 1   
   110  100  110 1   
   111  100  111 1   
   112  112  113 1   
   113  112  119 1   
   114  113  114 1   
   115  113  116 1   
   116  113  120 1   
   117  114  115 2   
   118  114  126 1   
   119  116  117 1   
   120  116  118 1   
   121  116  121 1   
   122  117  123 1   
   123  117  124 1   
   124  117  125 1   
   125  118  122 1   
   126  126  127 1   
   127  126  133 1   
   128  127  128 1   
   129  127  130 1   
   130  127  134 1   
   131  128  129 2   
   132  128  140 1   
   133  130  131 1   
   134  130  132 1   
   135  130  135 1   
   136  131  137 1   
   137  131  138 1   
   138  131  139 1   
   139  132  136 1   
   140  140  141 1   
   141  140  149 1   
   142  141  142 1   
   143  141  144 1   
   144  141  150 1   
   145  142  143 2   
   146  142  162 1   
   147  144  145 1   
   148  144  151 1   
   149  144  152 1   
   150  145  146 1   
   151  145  153 1   
   152  145  154 1   
   153  146  147 1   
   154  146  155 1   
   155  146  156 1   
   156  147  148 1   
   157  147  157 1   
   158  147  158 1   
   159  148  159 1   
   160  148  160 1   
   161  148  161 1   
   162  162  163 1   
   163  162  171 1   
   164  163  164 1   
   165  163  166 1   
   166  163  172 1   
   167  164  165 2   
   168  164  177 1   
   169  166  167 1   
   170  166  173 1   
   171  166  174 1   
   172  167  168 1   
   173  167  175 1   
   174  167  176 1   
   175  168  169 1   
   176  168  170 1   
   177  177  178 1   
   178  177  182 1   
   179  178  179 1   
   180  178  180 1   
   181  178  181 1   
   182  184  185 1   
   183  184  186 1   
   184  187  188 1   
   185  187  189 1   
@<TRIPOS>SUBSTRUCTURE
     1 MOL         1 TEMP              0 ****  ****    0 ROOT
