@<TRIPOS>MOLECULE
MOL
  179   176     1     0     0
SMALL
resp


@<TRIPOS>ATOM
      1 C1          1.4530    2.9780    5.9430 c3        1 MOL     -0.324639
      2 C2          0.9450    2.5080    4.5830 c         1 MOL      0.740734
      3 O1          1.7810    2.1340    3.7420 o         1 MOL     -0.631076
      4 H1          1.9930    3.9170    5.8230 hc        1 MOL      0.085780
      5 H2          0.6070    3.1290    6.6150 hc        1 MOL      0.085780
      6 H3          2.1210    2.2260    6.3620 hc        1 MOL      0.085780
      7 N1         -0.3320    2.4690    4.2820 n         1 MOL     -0.600873
      8 C3         -0.8940    2.1290    2.9770 c3        1 MOL      0.013886
      9 C4         -0.9230    3.3650    2.1090 c         1 MOL      0.578324
     10 O2         -1.3690    4.4470    2.5050 o         1 MOL     -0.544890
     11 C5         -2.2840    1.5510    3.1240 c3        1 MOL     -0.113056
     12 C6         -2.8550    1.0360    1.8280 c         1 MOL      0.571357
     13 O3         -2.2950    1.3100    0.7230 o         1 MOL     -0.647767
     14 O4         -3.9510    0.4460    1.7960 o         1 MOL     -0.647767
     15 H4         -0.9490    2.5710    5.0740 hn        1 MOL      0.333058
     16 H5         -0.2500    1.4090    2.4620 h1        1 MOL      0.049352
     17 H6         -2.9810    2.3210    3.4810 hc        1 MOL      0.056120
     18 H7         -2.2310    0.8080    3.9190 hc        1 MOL      0.056120
     19 N2         -0.1800    3.3360    0.9980 n         1 MOL     -0.026220
     20 C7          0.1290    4.5180    0.2540 c3        1 MOL     -0.445224
     21 C8         -1.0950    5.1700   -0.4790 c         1 MOL      0.578938
     22 O5         -1.2340    6.4080   -0.5300 o         1 MOL     -0.569409
     23 C9          1.3680    4.3160   -0.7000 c3        1 MOL      0.388313
     24 C10         1.9710    5.6390   -0.9830 c3        1 MOL     -0.415955
     25 C11         3.2390    5.4930   -1.8860 c3        1 MOL      0.165665
     26 C12         3.9720    6.9050   -2.0520 c3        1 MOL     -0.020687
     27 N3          5.1420    6.8500   -2.9420 n4        1 MOL     -0.311231
     28 H8          0.3660    2.5210    0.7550 hn        1 MOL      0.121856
     29 H9          0.4520    5.3600    0.8620 h1        1 MOL      0.135521
     30 H10         1.0260    3.8590   -1.6290 hc        1 MOL      0.010954
     31 H11         2.1440    3.7110   -0.2440 hc        1 MOL      0.010954
     32 H12         2.3970    6.0910   -0.0980 hc        1 MOL      0.106790
     33 H13         1.2790    6.2550   -1.5480 hc        1 MOL      0.106790
     34 H14         2.9780    5.0420   -2.8510 hc        1 MOL     -0.014994
     35 H15         3.9500    4.8010   -1.4370 hc        1 MOL     -0.014994
     36 H16         4.3620    7.1310   -1.0510 hx        1 MOL      0.096525
     37 H17         3.3000    7.6910   -2.3680 hx        1 MOL      0.096525
     38 H18         5.6680    7.7160   -2.8720 hn        1 MOL      0.314176
     39 H19         5.6810    6.0010   -2.8670 hn        1 MOL      0.314176
     40 H20         4.8590    6.9890   -3.8960 hn        1 MOL      0.314176
     41 N4         -1.9600    4.3450   -1.0160 n         1 MOL     -0.320561
     42 C13        -3.2390    4.7690   -1.6010 c3        1 MOL      0.052835
     43 C14        -4.4710    4.4650   -0.7150 c         1 MOL      0.500167
     44 O6         -5.4660    5.1840   -0.8940 o         1 MOL     -0.546410
     45 C15        -3.4200    4.1010   -2.9730 c3        1 MOL     -0.335640
     46 C16        -3.1590    2.5650   -2.9670 c         1 MOL      0.735146
     47 O7         -3.0940    1.9660   -4.0620 o         1 MOL     -0.682551
     48 O8         -3.0260    1.9120   -1.8380 o         1 MOL     -0.682551
     49 H21        -1.7980    3.3660   -0.8270 hn        1 MOL      0.158151
     50 H22        -3.2570    5.8560   -1.6530 h1        1 MOL      0.099429
     51 H23        -2.7330    4.5690   -3.6910 hc        1 MOL      0.106129
     52 H24        -4.4220    4.2530   -3.3730 hc        1 MOL      0.106129
     53 N5         -4.3870    3.5490    0.2670 n         1 MOL     -0.200837
     54 C17        -5.5620    3.1800    1.0940 c3        1 MOL     -0.205372
     55 C18        -6.5310    2.1810    0.4740 c         1 MOL      0.538622
     56 O9         -7.7500    2.2360    0.7330 o         1 MOL     -0.545427
     57 H25        -3.5920    2.9300    0.2820 hn        1 MOL      0.132653
     58 H26        -6.0950    4.0840    1.3820 h1        1 MOL      0.123475
     59 H27        -5.1530    2.7320    1.9960 h1        1 MOL      0.123475
     60 N6         -6.0190    1.2680   -0.3910 n         1 MOL     -0.221495
     61 C19        -6.7410    0.1280   -1.0710 c3        1 MOL     -0.044962
     62 C20        -7.0350   -0.9770   -0.0590 c         1 MOL      0.372691
     63 O10        -8.0460   -1.7720   -0.2060 o         1 MOL     -0.576410
     64 C21        -5.9530   -0.3690   -2.2870 c3        1 MOL     -0.124586
     65 C22        -4.8460   -1.4010   -2.0010 c         1 MOL      0.394892
     66 N7         -5.0530   -2.6150   -2.5580 n         1 MOL     -0.702653
     67 O11        -3.8740   -1.2190   -1.3360 o         1 MOL     -0.467932
     68 H28        -5.0170    1.2920   -0.4510 hn        1 MOL      0.108213
     69 H29        -7.6750    0.5290   -1.4560 h1        1 MOL      0.116725
     70 H30        -5.4800    0.5400   -2.6610 hc        1 MOL      0.093431
     71 H31        -6.6400   -0.6110   -3.0920 hc        1 MOL      0.093431
     72 H32        -5.9380   -2.7160   -3.0480 hn        1 MOL      0.353948
     73 H33        -4.4010   -3.3270   -2.2700 hn        1 MOL      0.353948
     74 N8         -6.1560   -1.0750    0.8700 n         1 MOL      0.026442
     75 C23        -6.3260   -1.9210    2.0730 c3        1 MOL     -0.267992
     76 C24        -5.1260   -2.8280    2.4030 c         1 MOL      0.511358
     77 O12        -5.1130   -3.4990    3.4320 o         1 MOL     -0.552403
     78 H34        -5.4020   -0.3960    0.7790 hn        1 MOL      0.134816
     79 H35        -7.2410   -2.4980    1.9380 h1        1 MOL      0.139641
     80 H36        -6.4650   -1.2420    2.9120 h1        1 MOL      0.139641
     81 N9         -4.0120   -2.8100    1.6280 n         1 MOL     -0.223522
     82 C25        -2.8090   -3.5330    1.8780 c3        1 MOL      0.112585
     83 C26        -1.5410   -2.7030    1.5630 c         1 MOL      0.456904
     84 O13        -1.5120   -1.8690    0.6430 o         1 MOL     -0.470897
     85 C27        -2.8130   -4.8890    1.1330 c3        1 MOL     -0.230256
     86 C28        -3.1360   -5.0510   -0.3770 ca        1 MOL      0.162455
     87 C29        -2.2240   -4.5970   -1.3350 ca        1 MOL     -0.178182
     88 C30        -4.3410   -5.6310   -0.7930 ca        1 MOL     -0.178182
     89 C31        -2.5240   -4.7990   -2.6900 ca        1 MOL     -0.248380
     90 C32        -4.6450   -5.8040   -2.1270 ca        1 MOL     -0.248380
     91 C33        -3.7190   -5.4370   -3.1200 ca        1 MOL      0.282765
     92 O14        -3.9100   -5.5080   -4.4990 oh        1 MOL     -0.490203
     93 H37        -4.1210   -2.2000    0.8340 hn        1 MOL      0.132913
     94 H38        -2.6980   -3.6780    2.9560 h1        1 MOL      0.051890
     95 H39        -3.4830   -5.5450    1.6910 hc        1 MOL      0.072330
     96 H40        -1.8130   -5.2960    1.2770 hc        1 MOL      0.072330
     97 H41        -1.3280   -4.0810   -1.0070 ha        1 MOL      0.150440
     98 H42        -5.0420   -5.9190   -0.0220 ha        1 MOL      0.150440
     99 H43        -1.8410   -4.3250   -3.3790 ha        1 MOL      0.144627
    100 H44        -5.6370   -6.1630   -2.3150 ha        1 MOL      0.144627
    101 H45        -4.7600   -5.9610   -4.5360 ho        1 MOL      0.375364
    102 N10        -0.4640   -3.1030    2.1960 n         1 MOL     -0.476154
    103 C34         0.8720   -2.6310    1.9550 c3        1 MOL      0.019448
    104 C35         1.5650   -3.6060    0.9810 c         1 MOL      0.421279
    105 O15         1.2690   -4.8110    0.8910 o         1 MOL     -0.514119
    106 C36         1.5170   -2.5990    3.3860 c3        1 MOL      0.065248
    107 C37         0.9340   -1.4260    4.2320 c3        1 MOL      0.177378
    108 C38         3.1030   -2.5200    3.2450 c3        1 MOL     -0.360038
    109 C39         1.0850   -1.7440    5.7190 c3        1 MOL     -0.173101
    110 H46        -0.5650   -3.7620    2.9570 hn        1 MOL      0.315062
    111 H47         0.8700   -1.6080    1.5640 h1        1 MOL      0.074606
    112 H48         1.0690   -3.4020    3.9750 hc        1 MOL      0.010123
    113 H49        -0.1260   -1.2210    4.0990 hc        1 MOL      0.005727
    114 H50         1.4940   -0.5110    4.0290 hc        1 MOL      0.005727
    115 H51         3.3800   -1.6620    2.6330 hc        1 MOL      0.088325
    116 H52         3.4730   -2.4930    4.2710 hc        1 MOL      0.088325
    117 H53         3.5320   -3.4900    2.9920 hc        1 MOL      0.088325
    118 H54         0.4760   -1.0370    6.2850 hc        1 MOL      0.029337
    119 H55         0.6430   -2.7180    5.9250 hc        1 MOL      0.029337
    120 H56         2.1380   -1.7430    6.0030 hc        1 MOL      0.029337
    121 N11         2.6690   -3.1100    0.3550 n         1 MOL     -0.162752
    122 C40         3.6630   -3.7330   -0.5610 c3        1 MOL     -0.035024
    123 C41         5.1180   -3.3920   -0.1870 c         1 MOL      0.393668
    124 O16         5.2940   -2.5050    0.6680 o         1 MOL     -0.403039
    125 C42         3.3350   -3.3180   -1.9640 c3        1 MOL     -0.042172
    126 O17         3.4890   -1.9110   -2.1370 oh        1 MOL     -0.569289
    127 H57         2.7200   -2.1060    0.4660 hn        1 MOL      0.294004
    128 H58         3.5470   -4.8100   -0.5800 h1        1 MOL      0.098838
    129 H59         2.2690   -3.5310   -2.0520 h1        1 MOL      0.079821
    130 H60         3.9490   -3.8090   -2.7270 h1        1 MOL      0.079821
    131 H61         3.9830   -1.6180   -2.9020 ho        1 MOL      0.424042
    132 N12         6.1750   -3.8830   -0.8970 n         1 MOL     -0.388680
    133 C43         7.5590   -3.5450   -0.5960 c3        1 MOL      0.139235
    134 C44         8.0100   -2.1020   -0.8870 c         1 MOL      0.510352
    135 O18         8.6660   -1.5440   -0.0590 o         1 MOL     -0.503021
    136 C45         8.4510   -4.6100   -1.2200 c3        1 MOL     -0.385422
    137 H62         6.0700   -4.5590   -1.6500 hn        1 MOL      0.265341
    138 H63         7.6830   -3.5320    0.4880 h1        1 MOL      0.076855
    139 H64         9.4640   -4.4600   -0.8480 hc        1 MOL      0.116790
    140 H65         8.1910   -5.5980   -0.8290 hc        1 MOL      0.116790
    141 H66         8.5350   -4.5110   -2.3010 hc        1 MOL      0.116790
    142 N13         7.5440   -1.5720   -2.0250 n         1 MOL     -0.484066
    143 C46         7.7530   -0.1440   -2.2310 c3        1 MOL      0.216318
    144 C47         7.0430    0.8220   -1.3330 c         1 MOL      0.258519
    145 O19         7.5010    1.9110   -1.1160 o         1 MOL     -0.476658
    146 C48         7.4080    0.1700   -3.6620 c3        1 MOL     -0.265329
    147 H67         6.9880   -2.1800   -2.6170 hn        1 MOL      0.281705
    148 H68         8.8030    0.0630   -2.0750 h1        1 MOL      0.086937
    149 H69         7.7760   -0.6240   -4.3130 hc        1 MOL      0.071273
    150 H70         6.3420    0.2450   -3.8680 hc        1 MOL      0.071273
    151 H71         7.9700    1.0730   -3.8870 hc        1 MOL      0.071273
    152 N14         5.8500    0.4970   -0.7980 n         1 MOL     -0.034065
    153 C49         5.0940    1.3200    0.1200 c3        1 MOL     -0.139832
    154 C50         5.7040    1.2610    1.5250 c         1 MOL      0.437368
    155 O20         5.9110    2.2740    2.1750 o         1 MOL     -0.529074
    156 C51         3.6590    0.8800    0.1260 c3        1 MOL      0.091831
    157 C52         2.9380    1.1810   -1.1830 c3        1 MOL     -0.038309
    158 C53         1.4080    0.9880   -1.1480 c         1 MOL      0.701866
    159 O21         0.7660    0.6530   -0.1120 o         1 MOL     -0.792081
    160 O22         0.6890    1.1320   -2.2140 o         1 MOL     -0.792081
    161 H72         5.4930   -0.4110   -1.0680 hn        1 MOL      0.098873
    162 H73         5.1750    2.3390   -0.2490 h1        1 MOL      0.096195
    163 H74         3.1180    1.2510    0.9880 hc        1 MOL      0.018438
    164 H75         3.6080   -0.2130    0.2050 hc        1 MOL      0.018438
    165 H76         3.3510    0.6760   -2.0540 hc        1 MOL     -0.028072
    166 H77         3.1020    2.1960   -1.5300 hc        1 MOL     -0.028072
    167 N15         6.3160    0.1060    1.8930 n         1 MOL     -0.041259
    168 C54         6.9900   -0.0770    3.1980 c3        1 MOL     -0.318241
    169 H78         8.0690   -0.0050    3.0630 h1        1 MOL      0.124413
    170 H79         6.6590    0.6960    3.8910 h1        1 MOL      0.124413
    171 H80         6.7390   -1.0580    3.6030 h1        1 MOL      0.124413
    172 H81         6.1230   -0.6160    1.2070 hn        1 MOL      0.084427
    173 Ca1        -1.4760    0.0630   -1.2240 Ca        1 MOL      1.742088
    174 O23        -0.0070   -2.1500   -2.0480 oh        1 MOL     -0.844704
    175 H82        -0.2840   -2.8370   -2.6560 ho        1 MOL      0.405305
    176 H83         0.9230   -2.0470   -2.1980 ho        1 MOL      0.405305
    177 O24        -1.9560   -0.4520   -3.7000 oh        1 MOL     -0.844704
    178 H84        -1.9120   -1.0110   -4.4760 ho        1 MOL      0.405305
    179 H85        -2.5210    0.2800   -3.9600 ho        1 MOL      0.405305
@<TRIPOS>BOND
     1    1    2 1   
     2    1    4 1   
     3    1    5 1   
     4    1    6 1   
     5    2    3 2   
     6    2    7 1   
     7    7    8 1   
     8    7   15 1   
     9    8    9 1   
    10    8   11 1   
    11    8   16 1   
    12    9   10 2   
    13    9   19 1   
    14   11   12 1   
    15   11   17 1   
    16   11   18 1   
    17   12   13 1   
    18   12   14 1   
    19   19   20 1   
    20   19   28 1   
    21   20   21 1   
    22   20   23 1   
    23   20   29 1   
    24   21   22 2   
    25   21   41 1   
    26   23   24 1   
    27   23   30 1   
    28   23   31 1   
    29   24   25 1   
    30   24   32 1   
    31   24   33 1   
    32   25   26 1   
    33   25   34 1   
    34   25   35 1   
    35   26   27 1   
    36   26   36 1   
    37   26   37 1   
    38   27   38 1   
    39   27   39 1   
    40   27   40 1   
    41   41   42 1   
    42   41   49 1   
    43   42   43 1   
    44   42   45 1   
    45   42   50 1   
    46   43   44 2   
    47   43   53 1   
    48   45   46 1   
    49   45   51 1   
    50   45   52 1   
    51   46   47 1   
    52   46   48 1   
    53   53   54 1   
    54   53   57 1   
    55   54   55 1   
    56   54   58 1   
    57   54   59 1   
    58   55   56 2   
    59   55   60 1   
    60   60   61 1   
    61   60   68 1   
    62   61   62 1   
    63   61   64 1   
    64   61   69 1   
    65   62   63 2   
    66   62   74 1   
    67   64   65 1   
    68   64   70 1   
    69   64   71 1   
    70   65   66 1   
    71   65   67 2   
    72   66   72 1   
    73   66   73 1   
    74   74   75 1   
    75   74   78 1   
    76   75   76 1   
    77   75   79 1   
    78   75   80 1   
    79   76   77 2   
    80   76   81 1   
    81   81   82 1   
    82   81   93 1   
    83   82   83 1   
    84   82   85 1   
    85   82   94 1   
    86   83   84 2   
    87   83  102 1   
    88   85   86 1   
    89   85   95 1   
    90   85   96 1   
    91   86   87 ar  
    92   86   88 ar  
    93   87   89 ar  
    94   87   97 1   
    95   88   90 ar  
    96   88   98 1   
    97   89   91 ar  
    98   89   99 1   
    99   90   91 ar  
   100   90  100 1   
   101   91   92 1   
   102   92  101 1   
   103  102  103 1   
   104  102  110 1   
   105  103  104 1   
   106  103  106 1   
   107  103  111 1   
   108  104  105 2   
   109  104  121 1   
   110  106  107 1   
   111  106  108 1   
   112  106  112 1   
   113  107  109 1   
   114  107  113 1   
   115  107  114 1   
   116  108  115 1   
   117  108  116 1   
   118  108  117 1   
   119  109  118 1   
   120  109  119 1   
   121  109  120 1   
   122  121  122 1   
   123  121  127 1   
   124  122  123 1   
   125  122  125 1   
   126  122  128 1   
   127  123  124 2   
   128  123  132 1   
   129  125  126 1   
   130  125  129 1   
   131  125  130 1   
   132  126  131 1   
   133  132  133 1   
   134  132  137 1   
   135  133  134 1   
   136  133  136 1   
   137  133  138 1   
   138  134  135 2   
   139  134  142 1   
   140  136  139 1   
   141  136  140 1   
   142  136  141 1   
   143  142  143 1   
   144  142  147 1   
   145  143  144 1   
   146  143  146 1   
   147  143  148 1   
   148  144  145 2   
   149  144  152 1   
   150  146  149 1   
   151  146  150 1   
   152  146  151 1   
   153  152  153 1   
   154  152  161 1   
   155  153  154 1   
   156  153  156 1   
   157  153  162 1   
   158  154  155 2   
   159  154  167 1   
   160  156  157 1   
   161  156  163 1   
   162  156  164 1   
   163  157  158 1   
   164  157  165 1   
   165  157  166 1   
   166  158  159 1   
   167  158  160 1   
   168  167  168 1   
   169  167  172 1   
   170  168  169 1   
   171  168  170 1   
   172  168  171 1   
   173  174  175 1   
   174  174  176 1   
   175  177  178 1   
   176  177  179 1   
@<TRIPOS>SUBSTRUCTURE
     1 MOL         1 TEMP              0 ****  ****    0 ROOT
