@<TRIPOS>MOLECULE
MOL
  175   173     1     0     0
SMALL
resp


@<TRIPOS>ATOM
      1 C1          1.0510    4.7660    5.0530 c3        1 MOL     -0.267460
      2 C2          0.2520    4.6470    3.7680 c         1 MOL      0.624970
      3 O1          0.8270    4.8560    2.6600 o         1 MOL     -0.545414
      4 H1          0.5060    4.2850    5.8650 hc        1 MOL      0.065360
      5 H2          2.0180    4.2800    4.9260 hc        1 MOL      0.065360
      6 H3          1.2020    5.8200    5.2910 hc        1 MOL      0.065360
      7 N1         -1.0010    4.2200    3.7950 n         1 MOL     -0.546336
      8 C3         -1.7790    3.8140    2.6730 c3        1 MOL     -0.001789
      9 C4         -1.9500    4.9120    1.6220 c         1 MOL      0.753132
     10 O2         -2.1280    6.0910    1.9170 o         1 MOL     -0.596700
     11 C5         -3.1880    3.3100    3.0960 c3        1 MOL     -0.352479
     12 C6         -3.9670    2.5350    1.9730 c         1 MOL      0.739694
     13 O3         -3.4220    2.1690    0.9370 o         1 MOL     -0.660061
     14 O4         -5.1750    2.3320    2.2090 o         1 MOL     -0.660061
     15 H4         -1.4420    4.1020    4.6990 hn        1 MOL      0.325551
     16 H5         -1.3500    2.9290    2.1960 h1        1 MOL      0.123866
     17 H6         -3.7030    4.1450    3.5770 hc        1 MOL      0.084433
     18 H7         -3.0890    2.5990    3.9100 hc        1 MOL      0.084433
     19 N2         -1.9640    4.4890    0.3450 n         1 MOL     -0.673785
     20 C7         -1.9600    5.3310   -0.8680 c3        1 MOL      0.324143
     21 C8         -3.0940    4.9600   -1.9120 c         1 MOL      0.464625
     22 O5         -3.4320    5.8170   -2.7540 o         1 MOL     -0.572221
     23 C9         -0.5080    5.3600   -1.4470 c3        1 MOL     -0.341571
     24 H8         -1.7570    3.5110    0.1920 hn        1 MOL      0.370386
     25 H9         -2.1590    6.3570   -0.5380 h1        1 MOL      0.013323
     26 H10         0.2470    5.8480   -0.8410 hc        1 MOL      0.087663
     27 H11        -0.2600    4.3000   -1.5300 hc        1 MOL      0.087663
     28 H12        -0.5770    5.6910   -2.4850 hc        1 MOL      0.087663
     29 N3         -3.7260    3.7700   -1.8070 n         1 MOL     -0.366731
     30 C10        -4.7080    3.3180   -2.7290 c3        1 MOL      0.133566
     31 C11        -5.9360    2.5720   -2.1440 c         1 MOL      0.400531
     32 O6         -6.9070    2.4480   -2.8680 o         1 MOL     -0.534114
     33 C12        -3.9860    2.4310   -3.8290 c3        1 MOL     -0.270164
     34 C13        -3.4560    1.0860   -3.3750 c         1 MOL      0.756234
     35 O7         -2.8420    0.4510   -4.2570 o         1 MOL     -0.671362
     36 O8         -3.5010    0.7340   -2.1680 o         1 MOL     -0.671362
     37 H13        -3.4170    3.0690   -1.1410 hn        1 MOL      0.219637
     38 H14        -5.2100    4.1770   -3.1740 h1        1 MOL      0.072940
     39 H15        -3.1880    3.0450   -4.2390 hc        1 MOL      0.065585
     40 H16        -4.6870    2.2020   -4.6420 hc        1 MOL      0.065585
     41 N4         -5.9700    1.9870   -0.8940 n         1 MOL     -0.186160
     42 C14        -7.1820    1.2360   -0.3420 c3        1 MOL     -0.300007
     43 C15        -7.3220   -0.1740   -0.8280 c         1 MOL      0.510096
     44 O9         -8.3920   -0.8260   -0.6550 o         1 MOL     -0.611913
     45 H17        -5.0920    1.9930   -0.3890 hn        1 MOL      0.085441
     46 H18        -8.1080    1.6890   -0.6840 h1        1 MOL      0.149723
     47 H19        -7.1360    1.1880    0.7390 h1        1 MOL      0.149723
     48 N5         -6.2090   -0.7390   -1.3470 n         1 MOL     -0.130044
     49 C16        -6.2860   -2.0770   -1.9950 c3        1 MOL     -0.118405
     50 C17        -6.2130   -3.3230   -0.9950 c         1 MOL      0.377633
     51 O10        -6.1160   -4.5290   -1.3940 o         1 MOL     -0.525609
     52 C18        -5.0570   -2.1400   -2.9320 c3        1 MOL      0.028376
     53 C19        -3.7130   -2.2410   -2.3360 c         1 MOL      0.474768
     54 N6         -2.7390   -2.5420   -3.1280 n         1 MOL     -0.607574
     55 O11        -3.6120   -2.2190   -1.1060 o         1 MOL     -0.404273
     56 H20        -5.4030   -0.1320   -1.4800 hn        1 MOL      0.146623
     57 H21        -7.1900   -2.1290   -2.5920 h1        1 MOL      0.117737
     58 H22        -5.1150   -1.3630   -3.6910 hc        1 MOL      0.000765
     59 H23        -5.1620   -3.0600   -3.5220 hc        1 MOL      0.000765
     60 H24        -2.9960   -2.4790   -4.1070 hn        1 MOL      0.334351
     61 H25        -1.7860   -2.4820   -2.8230 hn        1 MOL      0.334351
     62 N7         -6.2470   -3.0370    0.2510 n         1 MOL     -0.082737
     63 C20        -6.3370   -4.0720    1.2650 c3        1 MOL     -0.302407
     64 C21        -4.9880   -4.6280    1.7660 c         1 MOL      0.597703
     65 O12        -4.9600   -5.6030    2.5690 o         1 MOL     -0.583058
     66 H26        -6.2730   -2.0740    0.5620 hn        1 MOL      0.186275
     67 H27        -6.9670   -4.8470    0.8240 h1        1 MOL      0.125883
     68 H28        -6.7830   -3.7500    2.2000 h1        1 MOL      0.125883
     69 N8         -3.8330   -4.0030    1.4040 n         1 MOL     -0.357719
     70 C22        -2.4320   -4.4290    1.7680 c3        1 MOL     -0.161356
     71 C23        -1.4490   -3.2390    1.8950 c         1 MOL      0.570770
     72 O13        -1.5670   -2.2760    1.1570 o         1 MOL     -0.569156
     73 C24        -1.7840   -5.3540    0.7260 c3        1 MOL      0.604209
     74 C25        -2.2170   -6.8000    0.8330 c3        1 MOL     -0.486715
     75 O14        -2.1260   -4.9130   -0.5630 oh        1 MOL     -0.580568
     76 H29        -3.8270   -3.3610    0.6260 hn        1 MOL      0.203931
     77 H30        -2.4860   -4.8450    2.7730 h1        1 MOL      0.095964
     78 H31        -0.7100   -5.2440    0.8590 h1        1 MOL     -0.074259
     79 H32        -2.0000   -3.9590   -0.5660 ho        1 MOL      0.303941
     80 H33        -2.2420   -7.0260    1.8950 hc        1 MOL      0.116995
     81 H34        -3.2470   -6.8830    0.4960 hc        1 MOL      0.116995
     82 H35        -1.5490   -7.4690    0.2900 hc        1 MOL      0.116995
     83 N9         -0.3980   -3.3610    2.7570 n         1 MOL     -0.519927
     84 C26         0.8790   -2.6570    2.4890 c3        1 MOL      0.017769
     85 C27         1.4670   -2.9950    1.0850 c         1 MOL      0.501466
     86 O15         1.8610   -4.1290    0.7740 o         1 MOL     -0.587523
     87 C28         1.9450   -2.6800    3.6860 c3        1 MOL      0.046555
     88 C29         1.6450   -1.5910    4.6810 c3        1 MOL      0.217935
     89 C30         3.4230   -2.4560    3.1760 c3        1 MOL     -0.325397
     90 C31         2.3720   -1.9800    5.9350 c3        1 MOL     -0.132976
     91 H36        -0.2810   -4.1980    3.3100 hn        1 MOL      0.275286
     92 H37         0.6040   -1.6090    2.3960 h1        1 MOL      0.008638
     93 H38         1.8730   -3.6630    4.1640 hc        1 MOL      0.031027
     94 H39         0.5670   -1.5460    4.8580 hc        1 MOL     -0.040563
     95 H40         1.9300   -0.6120    4.3000 hc        1 MOL     -0.040563
     96 H41         3.6290   -3.1700    2.3770 hc        1 MOL      0.081746
     97 H42         3.6390   -1.4240    2.8860 hc        1 MOL      0.081746
     98 H43         4.1600   -2.6620    3.9570 hc        1 MOL      0.081746
     99 H44         3.4490   -1.8930    5.8750 hc        1 MOL      0.011490
    100 H45         1.9290   -1.3750    6.7240 hc        1 MOL      0.011490
    101 H46         2.0160   -2.9970    6.1460 hc        1 MOL      0.011490
    102 N10         1.5910   -2.0060    0.2830 n         1 MOL     -0.052779
    103 C32         2.4080   -2.0200   -0.8900 c3        1 MOL     -0.122079
    104 C33         3.8260   -1.5720   -0.6340 c         1 MOL      0.547544
    105 O16         4.1130   -0.7470    0.2600 o         1 MOL     -0.510337
    106 C34         1.7640   -1.2510   -2.0620 c3        1 MOL     -0.196904
    107 C35         0.3900   -1.6780   -2.3050 c         1 MOL      0.752911
    108 O17        -0.5680   -1.1950   -1.6950 o         1 MOL     -0.690264
    109 O18         0.1830   -2.3820   -3.3290 o         1 MOL     -0.690264
    110 H47         1.2990   -1.0730    0.5450 hn        1 MOL      0.160834
    111 H48         2.4580   -3.0700   -1.1840 h1        1 MOL      0.065583
    112 H49         2.3120   -1.4090   -2.9930 hc        1 MOL      0.059790
    113 H50         1.7540   -0.1690   -1.9590 hc        1 MOL      0.059790
    114 N11         4.6990   -2.0190   -1.4460 n         1 MOL     -0.520211
    115 C36         6.0890   -1.6320   -1.3180 c3        1 MOL      0.294009
    116 C37         6.4250   -0.0600   -1.3540 c         1 MOL      0.310108
    117 O19         7.2950    0.3620   -0.5460 o         1 MOL     -0.455806
    118 C38         6.9970   -2.3020   -2.3550 c3        1 MOL     -0.289925
    119 C39         8.4720   -2.1080   -2.0550 ca        1 MOL      0.151862
    120 C40         9.2090   -2.9330   -1.1120 ca        1 MOL     -0.234685
    121 C41         9.2060   -1.1110   -2.7870 ca        1 MOL     -0.234685
    122 C42        10.5960   -2.7430   -0.8470 ca        1 MOL     -0.000827
    123 C43        10.5780   -0.9960   -2.5400 ca        1 MOL     -0.000827
    124 C44        11.2650   -1.7680   -1.6310 ca        1 MOL     -0.247230
    125 H51         4.4460   -2.5650   -2.2500 hn        1 MOL      0.318832
    126 H52         6.3710   -1.9700   -0.3280 h1        1 MOL      0.072067
    127 H53         6.7710   -2.0600   -3.3940 hc        1 MOL      0.088103
    128 H54         6.8080   -3.3630   -2.2300 hc        1 MOL      0.088103
    129 H55         8.6050   -3.6090   -0.5250 ha        1 MOL      0.130891
    130 H56         8.7780   -0.5510   -3.6040 ha        1 MOL      0.130891
    131 H57        11.0460   -3.3590   -0.0760 ha        1 MOL      0.088664
    132 H58        11.1310   -0.2510   -3.0950 ha        1 MOL      0.088664
    133 H59        12.2800   -1.4730   -1.4360 ha        1 MOL      0.130671
    134 N12         5.8280    0.7730   -2.2130 n         1 MOL     -0.147215
    135 C45         5.8190    2.2760   -2.0030 c3        1 MOL      0.021409
    136 C46         5.3690    2.7820   -0.6180 c         1 MOL      0.232437
    137 O20         5.7390    3.8910   -0.2370 o         1 MOL     -0.494075
    138 C47         4.9180    2.8250   -3.1710 c3        1 MOL      0.089807
    139 C48         4.9140    1.7160   -4.2420 c3        1 MOL     -0.120699
    140 C49         4.8480    0.4990   -3.2860 c3        1 MOL      0.011561
    141 H60         6.8280    2.6090   -2.2220 h1        1 MOL      0.066576
    142 H61         3.9360    2.9120   -2.7120 hc        1 MOL      0.003710
    143 H62         5.2730    3.7980   -3.5170 hc        1 MOL      0.003710
    144 H63         4.1160    1.7790   -4.9830 hc        1 MOL      0.054959
    145 H64         5.8930    1.7410   -4.7230 hc        1 MOL      0.054959
    146 H65         3.9170    0.4210   -2.7380 h1        1 MOL      0.039569
    147 H66         5.1110   -0.4340   -3.8040 h1        1 MOL      0.039569
    148 N13         4.5820    1.9870    0.0970 n         1 MOL     -0.003080
    149 C50         3.9900    2.3480    1.3740 c3        1 MOL     -0.078640
    150 C51         4.9140    1.8620    2.5350 c         1 MOL      0.409315
    151 O21         4.8960    2.4080    3.6180 o         1 MOL     -0.520848
    152 C52         2.5630    1.7560    1.4230 c3        1 MOL      0.046117
    153 C53         1.6860    2.1600    0.2270 c3        1 MOL     -0.059213
    154 C54         0.3040    1.4320    0.2170 c         1 MOL      0.512219
    155 O22        -0.6340    1.9410   -0.4090 o         1 MOL     -0.674210
    156 O23         0.1680    0.3930    0.9240 o         1 MOL     -0.674210
    157 H67         4.3270    1.0850   -0.2800 hn        1 MOL      0.176374
    158 H68         3.9000    3.4220    1.5520 h1        1 MOL      0.103168
    159 H69         2.0830    2.1230    2.3400 hc        1 MOL      0.021943
    160 H70         2.5340    0.6740    1.5620 hc        1 MOL      0.021943
    161 H71         2.1850    1.8010   -0.6800 hc        1 MOL      0.045194
    162 H72         1.5530    3.2410    0.1410 hc        1 MOL      0.045194
    163 N14         5.8620    0.8590    2.2890 n         1 MOL      0.002125
    164 C55         6.8400    0.4270    3.2110 c3        1 MOL     -0.235384
    165 H73         7.5730   -0.1960    2.6990 h1        1 MOL      0.079415
    166 H74         7.3400    1.2940    3.6430 h1        1 MOL      0.079415
    167 H75         6.3630   -0.1500    4.0030 h1        1 MOL      0.079415
    168 H76         5.8930    0.4790    1.3500 hn        1 MOL      0.020735
    169 Ca1        -2.3020    0.0440   -0.0030 Ca        1 MOL      1.610078
    170 O24        -1.6150    0.0680    2.7350 oh        1 MOL     -0.742184
    171 H77        -1.4720    0.1530    3.6780 ho        1 MOL      0.363268
    172 H78        -0.7530    0.2110    2.3550 ho        1 MOL      0.363268
    173 O25        -4.5820   -0.4050    1.5550 oh        1 MOL     -0.742184
    174 H79        -5.0940   -0.9940    2.1050 ho        1 MOL      0.363268
    175 H80        -4.9050    0.4670    1.7620 ho        1 MOL      0.363268
@<TRIPOS>BOND
     1    1    2 1   
     2    1    4 1   
     3    1    5 1   
     4    1    6 1   
     5    2    3 2   
     6    2    7 1   
     7    7    8 1   
     8    7   15 1   
     9    8    9 1   
    10    8   11 1   
    11    8   16 1   
    12    9   10 2   
    13    9   19 1   
    14   11   12 1   
    15   11   17 1   
    16   11   18 1   
    17   12   13 1   
    18   12   14 1   
    19   19   20 1   
    20   19   24 1   
    21   20   21 1   
    22   20   23 1   
    23   20   25 1   
    24   21   22 2   
    25   21   29 1   
    26   23   26 1   
    27   23   27 1   
    28   23   28 1   
    29   29   30 1   
    30   29   37 1   
    31   30   31 1   
    32   30   33 1   
    33   30   38 1   
    34   31   32 2   
    35   31   41 1   
    36   33   34 1   
    37   33   39 1   
    38   33   40 1   
    39   34   35 1   
    40   34   36 1   
    41   41   42 1   
    42   41   45 1   
    43   42   43 1   
    44   42   46 1   
    45   42   47 1   
    46   43   44 2   
    47   43   48 1   
    48   48   49 1   
    49   48   56 1   
    50   49   50 1   
    51   49   52 1   
    52   49   57 1   
    53   50   51 2   
    54   50   62 1   
    55   52   53 1   
    56   52   58 1   
    57   52   59 1   
    58   53   54 1   
    59   53   55 2   
    60   54   60 1   
    61   54   61 1   
    62   62   63 1   
    63   62   66 1   
    64   63   64 1   
    65   63   67 1   
    66   63   68 1   
    67   64   65 2   
    68   64   69 1   
    69   69   70 1   
    70   69   76 1   
    71   70   71 1   
    72   70   73 1   
    73   70   77 1   
    74   71   72 2   
    75   71   83 1   
    76   73   74 1   
    77   73   75 1   
    78   73   78 1   
    79   74   80 1   
    80   74   81 1   
    81   74   82 1   
    82   75   79 1   
    83   83   84 1   
    84   83   91 1   
    85   84   85 1   
    86   84   87 1   
    87   84   92 1   
    88   85   86 2   
    89   85  102 1   
    90   87   88 1   
    91   87   89 1   
    92   87   93 1   
    93   88   90 1   
    94   88   94 1   
    95   88   95 1   
    96   89   96 1   
    97   89   97 1   
    98   89   98 1   
    99   90   99 1   
   100   90  100 1   
   101   90  101 1   
   102  102  103 1   
   103  102  110 1   
   104  103  104 1   
   105  103  106 1   
   106  103  111 1   
   107  104  105 2   
   108  104  114 1   
   109  106  107 1   
   110  106  112 1   
   111  106  113 1   
   112  107  108 1   
   113  107  109 1   
   114  114  115 1   
   115  114  125 1   
   116  115  116 1   
   117  115  118 1   
   118  115  126 1   
   119  116  117 2   
   120  116  134 1   
   121  118  119 1   
   122  118  127 1   
   123  118  128 1   
   124  119  120 ar  
   125  119  121 ar  
   126  120  122 ar  
   127  120  129 1   
   128  121  123 ar  
   129  121  130 1   
   130  122  124 ar  
   131  122  131 1   
   132  123  124 ar  
   133  123  132 1   
   134  124  133 1   
   135  134  135 1   
   136  134  140 1   
   137  135  136 1   
   138  135  138 1   
   139  135  141 1   
   140  136  137 2   
   141  136  148 1   
   142  138  139 1   
   143  138  142 1   
   144  138  143 1   
   145  139  140 1   
   146  139  144 1   
   147  139  145 1   
   148  140  146 1   
   149  140  147 1   
   150  148  149 1   
   151  148  157 1   
   152  149  150 1   
   153  149  152 1   
   154  149  158 1   
   155  150  151 2   
   156  150  163 1   
   157  152  153 1   
   158  152  159 1   
   159  152  160 1   
   160  153  154 1   
   161  153  161 1   
   162  153  162 1   
   163  154  155 1   
   164  154  156 1   
   165  163  164 1   
   166  163  168 1   
   167  164  165 1   
   168  164  166 1   
   169  164  167 1   
   170  170  171 1   
   171  170  172 1   
   172  173  174 1   
   173  173  175 1   
@<TRIPOS>SUBSTRUCTURE
     1 MOL         1 TEMP              0 ****  ****    0 ROOT
