@<TRIPOS>MOLECULE
MOL
  183   181     1     0     0
SMALL
resp


@<TRIPOS>ATOM
      1 C1         -0.7400    1.8730    6.6910 c3        1 MOL     -0.347865
      2 C2         -1.0420    1.7350    5.1730 c         1 MOL      0.705947
      3 O1         -0.1330    2.0110    4.3830 o         1 MOL     -0.569767
      4 H1         -0.4920    2.9100    6.9200 hc        1 MOL      0.082628
      5 H2         -1.6180    1.5750    7.2660 hc        1 MOL      0.082628
      6 H3          0.1010    1.2320    6.9550 hc        1 MOL      0.082628
      7 N1         -2.3070    1.5320    4.7550 n         1 MOL     -0.663517
      8 C3         -2.7810    1.3140    3.3490 c3        1 MOL      0.207838
      9 C4         -3.2480    2.7020    2.8760 c         1 MOL      0.616180
     10 O2         -3.9450    3.4160    3.5640 o         1 MOL     -0.578933
     11 C5         -3.9600    0.4080    3.2680 c3        1 MOL     -0.044071
     12 C6         -4.4790    0.3280    1.8590 c         1 MOL      0.710366
     13 O3         -5.7100    0.6570    1.7040 o         1 MOL     -0.705192
     14 O4         -3.7070    0.0580    0.9280 o         1 MOL     -0.705192
     15 H4         -2.8960    1.3890    5.5590 hn        1 MOL      0.323531
     16 H5         -1.9760    1.0430    2.6660 h1        1 MOL     -0.017021
     17 H6         -4.7340    0.8350    3.9120 hc        1 MOL     -0.024747
     18 H7         -3.6210   -0.5790    3.5880 hc        1 MOL     -0.024747
     19 N2         -2.8300    3.0970    1.6240 n         1 MOL     -0.376809
     20 C7         -2.9050    4.4890    1.0870 c3        1 MOL     -0.116562
     21 C8         -4.0340    4.6340    0.0040 c         1 MOL      0.594855
     22 O5         -4.4780    5.7290   -0.3060 o         1 MOL     -0.580850
     23 C9         -1.4890    4.7820    0.6240 c3        1 MOL      0.121555
     24 C10        -0.5420    4.6180    1.8710 c3        1 MOL     -0.063597
     25 C11        -1.4470    6.2310    0.0450 c3        1 MOL     -0.324832
     26 C12         0.7690    5.4240    1.7970 c3        1 MOL     -0.314464
     27 H8         -2.3160    2.3660    1.1640 hn        1 MOL      0.306779
     28 H9         -3.2610    5.1750    1.8680 h1        1 MOL      0.078555
     29 H10        -1.1290    4.0590   -0.1110 hc        1 MOL      0.088071
     30 H11        -0.3850    3.5400    1.8850 hc        1 MOL      0.061908
     31 H12        -0.9880    4.7470    2.8510 hc        1 MOL      0.061908
     32 H13        -2.1680    6.3510   -0.7650 hc        1 MOL      0.076857
     33 H14        -1.7690    7.0170    0.7200 hc        1 MOL      0.076857
     34 H15        -0.4380    6.4940   -0.2880 hc        1 MOL      0.076857
     35 H16         0.5170    6.4700    1.9780 hc        1 MOL      0.077281
     36 H17         1.4130    5.0880    2.6130 hc        1 MOL      0.077281
     37 H18         1.2070    5.4530    0.7950 hc        1 MOL      0.077281
     38 N3         -4.4960    3.5310   -0.6060 n         1 MOL     -0.366496
     39 C13        -5.6290    3.5780   -1.5650 c3        1 MOL      0.000221
     40 C14        -6.8480    2.7540   -1.4100 c         1 MOL      0.472306
     41 O6         -7.7180    2.7250   -2.3080 o         1 MOL     -0.569067
     42 C15        -4.9650    3.3560   -2.9140 c3        1 MOL     -0.050886
     43 C16        -4.0800    2.0910   -3.0240 c         1 MOL      0.759404
     44 O7         -4.0310    1.2750   -2.0820 o         1 MOL     -0.731021
     45 O8         -3.6000    1.8070   -4.1680 o         1 MOL     -0.731021
     46 H19        -4.1250    2.6600   -0.2580 hn        1 MOL      0.143313
     47 H20        -6.0140    4.6010   -1.6010 h1        1 MOL      0.076559
     48 H21        -4.2510    4.1600   -3.1170 hc        1 MOL      0.005414
     49 H22        -5.7290    3.3520   -3.6870 hc        1 MOL      0.005414
     50 N4         -6.9840    2.1270   -0.2960 n         1 MOL     -0.184480
     51 C17        -8.2300    1.4790    0.0640 c3        1 MOL     -0.451027
     52 C18        -8.3790    0.0280   -0.4110 c         1 MOL      0.642713
     53 O9         -9.3920   -0.6200   -0.1960 o         1 MOL     -0.649299
     54 H23        -6.2480    2.0740    0.3920 hn        1 MOL      0.226223
     55 H24        -9.0760    2.0090   -0.3590 h1        1 MOL      0.176761
     56 H25        -8.1760    1.4290    1.1480 h1        1 MOL      0.176761
     57 N5         -7.3850   -0.5590   -1.0260 n         1 MOL     -0.311532
     58 C19        -7.4220   -1.9570   -1.5350 c3        1 MOL      0.072018
     59 C20        -6.9050   -2.9540   -0.4570 c         1 MOL      0.341307
     60 O10        -6.7140   -4.1600   -0.6820 o         1 MOL     -0.503593
     61 C21        -6.4440   -2.1330   -2.7540 c3        1 MOL     -0.301566
     62 C22        -4.9340   -1.9620   -2.5420 c         1 MOL      0.771821
     63 O11        -4.1950   -1.8060   -3.5570 o         1 MOL     -0.670271
     64 O12        -4.3790   -2.0810   -1.4210 o         1 MOL     -0.670271
     65 H26        -6.6180    0.0750   -1.1870 hn        1 MOL      0.248687
     66 H27        -8.4150   -2.2400   -1.8650 h1        1 MOL      0.104314
     67 H28        -6.7780   -1.4070   -3.4890 hc        1 MOL      0.068908
     68 H29        -6.6340   -3.1430   -3.1070 hc        1 MOL      0.068908
     69 N6         -6.6040   -2.4620    0.8040 n         1 MOL     -0.173225
     70 C23        -6.2880   -3.3730    1.9510 c3        1 MOL     -0.301000
     71 C24        -5.0330   -4.1370    1.7990 c         1 MOL      0.667155
     72 O13        -5.0280   -5.0570    2.5850 o         1 MOL     -0.638958
     73 H30        -6.5700   -1.4720    0.9420 hn        1 MOL      0.216349
     74 H31        -7.0640   -4.1280    2.0680 h1        1 MOL      0.123356
     75 H32        -6.0630   -2.7310    2.8030 h1        1 MOL      0.123356
     76 N7         -4.0650   -3.8480    0.9610 n         1 MOL     -0.140134
     77 C25        -2.6640   -4.4470    1.0320 c3        1 MOL     -0.092874
     78 C26        -1.5550   -3.4130    1.1410 c         1 MOL      0.563095
     79 O14        -1.7710   -2.2380    0.7500 o         1 MOL     -0.592927
     80 C27        -2.3800   -5.4950   -0.0840 c3        1 MOL      0.154055
     81 C28        -2.6340   -5.2080   -1.5780 c3        1 MOL     -0.236049
     82 C29        -1.6640   -4.2510   -2.2000 c         1 MOL      0.628645
     83 N8         -0.8280   -4.7380   -3.1200 n         1 MOL     -0.793958
     84 O15        -1.5690   -3.0700   -1.9000 o         1 MOL     -0.481079
     85 H33        -4.2440   -3.1660    0.2410 hn        1 MOL      0.050743
     86 H34        -2.4760   -4.9450    1.9820 h1        1 MOL      0.030126
     87 H35        -2.8280   -6.4420    0.2220 hc        1 MOL     -0.036652
     88 H36        -1.2970   -5.5970   -0.0850 hc        1 MOL     -0.036652
     89 H37        -3.6700   -4.8950   -1.6660 hc        1 MOL      0.076556
     90 H38        -2.5110   -6.1680   -2.0800 hc        1 MOL      0.076556
     91 H39        -0.9560   -5.6870   -3.4560 hn        1 MOL      0.356091
     92 H40        -0.2510   -4.1080   -3.6600 hn        1 MOL      0.356091
     93 N9         -0.4140   -3.7600    1.7170 n         1 MOL     -0.293706
     94 C30         0.7370   -2.9220    1.8860 c3        1 MOL     -0.095569
     95 C31         1.9490   -3.3040    1.0350 c         1 MOL      0.467323
     96 O16         2.6430   -4.2380    1.3460 o         1 MOL     -0.576260
     97 C32         1.0860   -2.7090    3.4070 c3        1 MOL      0.235385
     98 C33         2.3940   -1.8790    3.7510 c3        1 MOL     -0.390456
     99 C34         0.0890   -1.8240    4.1910 c3        1 MOL     -0.390456
    100 H41        -0.3150   -4.7170    2.0290 hn        1 MOL      0.254530
    101 H42         0.5570   -1.9050    1.5590 h1        1 MOL      0.130301
    102 H43         1.1210   -3.6800    3.9030 hc        1 MOL     -0.029311
    103 H44         3.1100   -2.6850    3.8760 hc        1 MOL      0.099646
    104 H45         2.4850   -1.1170    2.9750 hc        1 MOL      0.099646
    105 H46         2.3790   -1.4250    4.7460 hc        1 MOL      0.099646
    106 H47         0.0210   -0.9030    3.6240 hc        1 MOL      0.099646
    107 H48        -0.8240   -2.4250    4.2090 hc        1 MOL      0.099646
    108 H49         0.4050   -1.7030    5.2250 hc        1 MOL      0.099646
    109 N10         2.2190   -2.6450   -0.0980 n         1 MOL     -0.230793
    110 C35         3.3720   -2.9020   -0.9290 c3        1 MOL      0.029464
    111 C36         4.5700   -1.9940   -0.4930 c         1 MOL      0.470550
    112 O17         4.4200   -1.1580    0.3720 o         1 MOL     -0.318210
    113 C37         3.0040   -2.7960   -2.4320 c3        1 MOL     -0.257447
    114 C38         3.1320   -1.3740   -3.0140 c         1 MOL      0.702084
    115 N11         2.1310   -0.5140   -2.8050 n         1 MOL     -0.764083
    116 O18         4.0580   -1.0670   -3.7660 o         1 MOL     -0.601501
    117 H50         1.5640   -1.9370   -0.3680 hn        1 MOL      0.167815
    118 H51         3.6460   -3.9450   -0.7910 h1        1 MOL      0.087089
    119 H52         1.9800   -3.1050   -2.6280 hc        1 MOL      0.075968
    120 H53         3.6600   -3.4740   -2.9850 hc        1 MOL      0.075968
    121 H54         1.2280   -0.7540   -2.4110 hn        1 MOL      0.375926
    122 H55         2.1950    0.4340   -3.1420 hn        1 MOL      0.375926
    123 N12         5.7950   -2.3200   -0.8870 n         1 MOL     -0.602578
    124 C39         7.0310   -1.6790   -0.3550 c3        1 MOL      0.160925
    125 C40         7.0330   -0.1560   -0.5110 c         1 MOL      0.548911
    126 O19         7.4710    0.6090    0.3140 o         1 MOL     -0.528210
    127 C41         8.2450   -2.3030   -0.9380 c3        1 MOL     -0.129309
    128 C42         9.5710   -1.8520   -0.3780 ca        1 MOL     -0.041191
    129 C43         9.9520   -2.0790    0.9150 ca        1 MOL     -0.089000
    130 C44        10.2520   -0.8300   -1.0440 ca        1 MOL     -0.089000
    131 C45        11.1120   -1.5000    1.4090 ca        1 MOL     -0.311792
    132 C46        11.3510   -0.1300   -0.5720 ca        1 MOL     -0.311792
    133 C47        11.7300   -0.4560    0.7320 ca        1 MOL      0.407715
    134 O20        12.8330    0.1680    1.3180 oh        1 MOL     -0.539053
    135 H56         5.7780   -2.8420   -1.7580 hn        1 MOL      0.316327
    136 H57         7.1770   -1.9340    0.6870 h1        1 MOL      0.099047
    137 H58         8.2450   -2.1850   -2.0190 hc        1 MOL      0.060469
    138 H59         8.2420   -3.3930   -0.8190 hc        1 MOL      0.060469
    139 H60         9.2980   -2.6410    1.5740 ha        1 MOL      0.115414
    140 H61         9.8040   -0.3320   -1.8900 ha        1 MOL      0.115414
    141 H62        11.3970   -1.6330    2.4430 ha        1 MOL      0.158416
    142 H63        11.7850    0.7120   -1.0950 ha        1 MOL      0.158416
    143 H64        13.0280    0.8700    0.6980 ho        1 MOL      0.367222
    144 N13         6.4510    0.3840   -1.6020 n         1 MOL     -0.451605
    145 C48         6.2780    1.8470   -1.7890 c3        1 MOL      0.133152
    146 C49         5.3370    2.4210   -0.6430 c         1 MOL      0.262657
    147 O21         5.5470    3.5920   -0.2430 o         1 MOL     -0.525810
    148 C50         5.4520    1.9450   -3.1030 c3        1 MOL     -0.130246
    149 C51         5.0230    3.4010   -3.4930 c3        1 MOL     -0.183386
    150 C52         4.1040    3.4270   -4.6570 c         1 MOL      0.739205
    151 O22         2.9140    3.8220   -4.4870 o         1 MOL     -0.750807
    152 O23         4.5630    3.0820   -5.8080 o         1 MOL     -0.750807
    153 H65         6.0460   -0.2450   -2.2710 hn        1 MOL      0.239325
    154 H66         7.1960    2.4380   -1.7720 h1        1 MOL      0.090887
    155 H67         4.4690    1.4740   -3.0430 hc        1 MOL      0.054368
    156 H68         6.0710    1.5850   -3.9290 hc        1 MOL      0.054368
    157 H69         5.8840    4.0410   -3.7110 hc        1 MOL      0.020314
    158 H70         4.5120    3.8680   -2.6500 hc        1 MOL      0.020314
    159 N14         4.4980    1.6080    0.0050 n         1 MOL      0.072199
    160 C53         3.6390    1.9830    1.1950 c3        1 MOL     -0.080392
    161 C54         4.2050    1.6330    2.5810 c         1 MOL      0.447051
    162 O24         3.9820    2.3460    3.6060 o         1 MOL     -0.559337
    163 C55         2.3140    1.2990    1.1220 c3        1 MOL      0.090236
    164 C56         1.5580    1.7760   -0.1280 c3        1 MOL     -0.194230
    165 C57         0.3130    0.9350   -0.5180 c         1 MOL      0.769624
    166 O25        -0.8430    1.4510   -0.6190 o         1 MOL     -0.799246
    167 O26         0.3740   -0.3310   -0.7990 o         1 MOL     -0.799246
    168 H71         4.6340    0.6140   -0.1520 hn        1 MOL     -0.022349
    169 H72         3.5210    3.0700    1.1700 h1        1 MOL      0.093427
    170 H73         1.6090    1.3790    1.9400 hc        1 MOL      0.036735
    171 H74         2.4710    0.2180    1.0580 hc        1 MOL      0.036735
    172 H75         2.2580    1.7190   -0.9620 hc        1 MOL      0.074902
    173 H76         1.2320    2.8160   -0.0700 hc        1 MOL      0.074902
    174 N15         5.0990    0.6750    2.5880 n         1 MOL     -0.143596
    175 C58         5.9520    0.2900    3.7650 c3        1 MOL     -0.152422
    176 H77         6.0310    1.1360    4.4480 h1        1 MOL      0.068401
    177 H78         5.4970   -0.5540    4.2840 h1        1 MOL      0.068401
    178 H79         6.9460    0.0100    3.4180 h1        1 MOL      0.068401
    179 H80         5.0790   -0.0410    1.8790 hn        1 MOL      0.117471
    180 Ca1        -2.4180   -0.5580   -1.1580 Ca        1 MOL      1.730249
    181 O27        -1.6210   -0.0730   -3.6430 oh        1 MOL     -0.932100
    182 H81        -0.9140    0.5600   -3.7500 ho        1 MOL      0.444105
    183 H82        -2.3180    0.2480   -4.2050 ho        1 MOL      0.444105
@<TRIPOS>BOND
     1    1    2 1   
     2    1    4 1   
     3    1    5 1   
     4    1    6 1   
     5    2    3 2   
     6    2    7 1   
     7    7    8 1   
     8    7   15 1   
     9    8    9 1   
    10    8   11 1   
    11    8   16 1   
    12    9   10 2   
    13    9   19 1   
    14   11   12 1   
    15   11   17 1   
    16   11   18 1   
    17   12   13 1   
    18   12   14 1   
    19   19   20 1   
    20   19   27 1   
    21   20   21 1   
    22   20   23 1   
    23   20   28 1   
    24   21   22 2   
    25   21   38 1   
    26   23   24 1   
    27   23   25 1   
    28   23   29 1   
    29   24   26 1   
    30   24   30 1   
    31   24   31 1   
    32   25   32 1   
    33   25   33 1   
    34   25   34 1   
    35   26   35 1   
    36   26   36 1   
    37   26   37 1   
    38   38   39 1   
    39   38   46 1   
    40   39   40 1   
    41   39   42 1   
    42   39   47 1   
    43   40   41 2   
    44   40   50 1   
    45   42   43 1   
    46   42   48 1   
    47   42   49 1   
    48   43   44 1   
    49   43   45 1   
    50   50   51 1   
    51   50   54 1   
    52   51   52 1   
    53   51   55 1   
    54   51   56 1   
    55   52   53 2   
    56   52   57 1   
    57   57   58 1   
    58   57   65 1   
    59   58   59 1   
    60   58   61 1   
    61   58   66 1   
    62   59   60 2   
    63   59   69 1   
    64   61   62 1   
    65   61   67 1   
    66   61   68 1   
    67   62   63 1   
    68   62   64 1   
    69   69   70 1   
    70   69   73 1   
    71   70   71 1   
    72   70   74 1   
    73   70   75 1   
    74   71   72 2   
    75   71   76 1   
    76   76   77 1   
    77   76   85 1   
    78   77   78 1   
    79   77   80 1   
    80   77   86 1   
    81   78   79 2   
    82   78   93 1   
    83   80   81 1   
    84   80   87 1   
    85   80   88 1   
    86   81   82 1   
    87   81   89 1   
    88   81   90 1   
    89   82   83 1   
    90   82   84 2   
    91   83   91 1   
    92   83   92 1   
    93   93   94 1   
    94   93  100 1   
    95   94   95 1   
    96   94   97 1   
    97   94  101 1   
    98   95   96 2   
    99   95  109 1   
   100   97   98 1   
   101   97   99 1   
   102   97  102 1   
   103   98  103 1   
   104   98  104 1   
   105   98  105 1   
   106   99  106 1   
   107   99  107 1   
   108   99  108 1   
   109  109  110 1   
   110  109  117 1   
   111  110  111 1   
   112  110  113 1   
   113  110  118 1   
   114  111  112 2   
   115  111  123 1   
   116  113  114 1   
   117  113  119 1   
   118  113  120 1   
   119  114  115 1   
   120  114  116 2   
   121  115  121 1   
   122  115  122 1   
   123  123  124 1   
   124  123  135 1   
   125  124  125 1   
   126  124  127 1   
   127  124  136 1   
   128  125  126 2   
   129  125  144 1   
   130  127  128 1   
   131  127  137 1   
   132  127  138 1   
   133  128  129 ar  
   134  128  130 ar  
   135  129  131 ar  
   136  129  139 1   
   137  130  132 ar  
   138  130  140 1   
   139  131  133 ar  
   140  131  141 1   
   141  132  133 ar  
   142  132  142 1   
   143  133  134 1   
   144  134  143 1   
   145  144  145 1   
   146  144  153 1   
   147  145  146 1   
   148  145  148 1   
   149  145  154 1   
   150  146  147 2   
   151  146  159 1   
   152  148  149 1   
   153  148  155 1   
   154  148  156 1   
   155  149  150 1   
   156  149  157 1   
   157  149  158 1   
   158  150  151 1   
   159  150  152 1   
   160  159  160 1   
   161  159  168 1   
   162  160  161 1   
   163  160  163 1   
   164  160  169 1   
   165  161  162 2   
   166  161  174 1   
   167  163  164 1   
   168  163  170 1   
   169  163  171 1   
   170  164  165 1   
   171  164  172 1   
   172  164  173 1   
   173  165  166 1   
   174  165  167 1   
   175  174  175 1   
   176  174  179 1   
   177  175  176 1   
   178  175  177 1   
   179  175  178 1   
   180  181  182 1   
   181  181  183 1   
@<TRIPOS>SUBSTRUCTURE
     1 MOL         1 TEMP              0 ****  ****    0 ROOT
