@<TRIPOS>MOLECULE
MOL
  175   173     1     0     0
SMALL
resp


@<TRIPOS>ATOM
      1 C1          0.9950    3.7190    5.4580 c3        1 MOL     -0.372226
      2 C2          0.4040    3.8540    4.0300 c         1 MOL      0.733061
      3 O1          1.1660    4.0880    3.0910 o         1 MOL     -0.545754
      4 H1          0.2950    4.1390    6.1800 hc        1 MOL      0.089355
      5 H2          1.1610    2.6660    5.6840 hc        1 MOL      0.089355
      6 H3          1.9410    4.2580    5.5130 hc        1 MOL      0.089355
      7 N1         -0.9420    3.6630    3.9010 n         1 MOL     -0.683991
      8 C3         -1.6890    3.4420    2.6450 c3        1 MOL      0.295091
      9 C4         -1.6080    4.6140    1.6380 c         1 MOL      0.510180
     10 O2         -1.7590    5.7620    2.0250 o         1 MOL     -0.570252
     11 C5         -3.1520    3.1150    2.9320 c3        1 MOL     -0.399684
     12 C6         -3.9040    2.8960    1.5950 c         1 MOL      0.722742
     13 O3         -3.4700    2.0060    0.8180 o         1 MOL     -0.666308
     14 O4         -4.7600    3.7370    1.2220 o         1 MOL     -0.666308
     15 H4         -1.4970    3.4210    4.7110 hn        1 MOL      0.322387
     16 H5         -1.2030    2.5910    2.1560 h1        1 MOL      0.000892
     17 H6         -3.6010    3.9330    3.4850 hc        1 MOL      0.081907
     18 H7         -3.2410    2.2360    3.5810 hc        1 MOL      0.081907
     19 N2         -1.4750    4.3850    0.3480 n         1 MOL     -0.307253
     20 C7         -1.6440    5.3540   -0.6660 c3        1 MOL      0.309712
     21 C8         -2.6200    4.9490   -1.8470 c         1 MOL      0.515548
     22 O5         -2.4720    5.4060   -2.9800 o         1 MOL     -0.547857
     23 C9         -0.2840    5.9080   -1.0360 c3        1 MOL     -0.305944
     24 H8         -1.2540    3.4670   -0.0050 hn        1 MOL      0.226806
     25 H9         -2.2020    6.1570   -0.1980 h1        1 MOL      0.005774
     26 H10         0.4060    5.1480   -1.4110 hc        1 MOL      0.059088
     27 H11        -0.5670    6.6150   -1.8150 hc        1 MOL      0.059088
     28 H12         0.0910    6.4240   -0.1480 hc        1 MOL      0.059088
     29 N3         -3.6940    4.1010   -1.6040 n         1 MOL     -0.592667
     30 C10        -4.5920    3.6120   -2.7140 c3        1 MOL      0.398923
     31 C11        -5.9000    3.1160   -2.1330 c         1 MOL      0.304089
     32 O6         -6.9310    3.2740   -2.8050 o         1 MOL     -0.579813
     33 C12        -3.9930    2.4920   -3.5990 c3        1 MOL     -0.469594
     34 C13        -3.3200    1.4330   -2.8100 c         1 MOL      0.814760
     35 O7         -3.9590    0.7760   -1.9080 o         1 MOL     -0.701648
     36 O8         -2.1360    1.1790   -2.8830 o         1 MOL     -0.701648
     37 H13        -3.7320    3.7080   -0.6750 hn        1 MOL      0.270800
     38 H14        -4.7990    4.4230   -3.3990 h1        1 MOL      0.027416
     39 H15        -3.3330    3.0460   -4.2600 hc        1 MOL      0.112516
     40 H16        -4.8790    2.0860   -4.0900 hc        1 MOL      0.112516
     41 N4         -6.0950    2.5950   -0.9190 n         1 MOL     -0.072838
     42 C14        -7.2850    1.8640   -0.4800 c3        1 MOL     -0.151186
     43 C15        -7.4720    0.3910   -0.9000 c         1 MOL      0.475132
     44 O9         -8.5560   -0.2020   -0.7070 o         1 MOL     -0.641460
     45 H17        -5.2970    2.4990   -0.3100 hn        1 MOL      0.112113
     46 H18        -8.2400    2.2340   -0.8450 h1        1 MOL      0.093722
     47 H19        -7.4740    1.9040    0.5930 h1        1 MOL      0.093722
     48 N5         -6.5480   -0.2860   -1.5330 n         1 MOL     -0.072250
     49 C16        -6.5940   -1.7500   -1.8850 c3        1 MOL     -0.118001
     50 C17        -6.4890   -2.7800   -0.7020 c         1 MOL      0.468545
     51 O10        -6.7140   -3.9900   -0.9590 o         1 MOL     -0.510181
     52 C18        -5.5840   -2.0660   -3.0380 c3        1 MOL     -0.200784
     53 C19        -4.1120   -2.0850   -2.6170 c         1 MOL      0.547819
     54 N6         -3.1890   -2.0800   -3.5270 n         1 MOL     -0.563541
     55 O11        -3.7870   -2.0630   -1.4080 o         1 MOL     -0.407415
     56 H20        -5.6670    0.1650   -1.7080 hn        1 MOL      0.073811
     57 H21        -7.5410   -1.8980   -2.3960 h1        1 MOL      0.133697
     58 H22        -5.7950   -1.3650   -3.8460 hc        1 MOL      0.073441
     59 H23        -5.7830   -3.0760   -3.3840 hc        1 MOL      0.073441
     60 H24        -3.4520   -2.2230   -4.4960 hn        1 MOL      0.303609
     61 H25        -2.2060   -2.1060   -3.2850 hn        1 MOL      0.303609
     62 N7         -6.4510   -2.3970    0.5980 n         1 MOL     -0.219181
     63 C20        -6.4880   -3.2580    1.7180 c3        1 MOL     -0.205978
     64 C21        -5.2250   -4.1100    1.9810 c         1 MOL      0.477331
     65 O12        -5.1620   -5.0610    2.7650 o         1 MOL     -0.572488
     66 H26        -6.4020   -1.4280    0.8710 hn        1 MOL      0.256435
     67 H27        -7.3250   -3.9500    1.6970 h1        1 MOL      0.103483
     68 H28        -6.6170   -2.6080    2.5780 h1        1 MOL      0.103483
     69 N8         -4.1260   -3.7360    1.2580 n         1 MOL      0.130252
     70 C22        -2.8270   -4.4890    1.3970 c3        1 MOL     -0.436610
     71 C23        -1.7100   -3.5490    1.3900 c         1 MOL      0.652324
     72 O13        -1.7800   -2.4000    0.8500 o         1 MOL     -0.449484
     73 C24        -2.7130   -5.5010    0.2460 c3        1 MOL      0.570171
     74 C25        -3.8800   -6.5410    0.2970 c3        1 MOL     -0.349883
     75 O14        -2.7360   -4.8680   -1.0230 oh        1 MOL     -0.604187
     76 H29        -4.1590   -2.8690    0.7390 hn        1 MOL     -0.161413
     77 H30        -2.7990   -5.0100    2.3530 h1        1 MOL      0.128569
     78 H31        -1.7660   -6.0320    0.3570 h1        1 MOL     -0.057281
     79 H32        -2.6720   -3.9100   -0.9150 ho        1 MOL      0.316137
     80 H33        -3.9760   -6.9410    1.3080 hc        1 MOL      0.081311
     81 H34        -4.8210   -6.0630   -0.0010 hc        1 MOL      0.081311
     82 H35        -3.6750   -7.4460   -0.2820 hc        1 MOL      0.081311
     83 N9         -0.5760   -3.8940    1.9960 n         1 MOL     -0.522454
     84 C26         0.6490   -3.0870    1.8360 c3        1 MOL     -0.002310
     85 C27         1.3250   -3.3340    0.5010 c         1 MOL      0.642124
     86 O15         1.5900   -4.4860    0.0730 o         1 MOL     -0.565868
     87 C28         1.5160   -3.2900    3.0340 c3        1 MOL      0.038676
     88 C29         0.9920   -2.3430    4.1890 c3        1 MOL      0.089729
     89 C30         3.0070   -2.8410    2.8510 c3        1 MOL     -0.065228
     90 C31         1.8040   -2.3550    5.4850 c3        1 MOL     -0.287460
     91 H36        -0.4910   -4.8140    2.3970 hn        1 MOL      0.304779
     92 H37         0.4090   -2.0270    1.9270 h1        1 MOL     -0.088923
     93 H38         1.5360   -4.3490    3.2700 hc        1 MOL      0.027614
     94 H39        -0.0220   -2.5600    4.5400 hc        1 MOL      0.012987
     95 H40         1.0930   -1.3150    3.8360 hc        1 MOL      0.012987
     96 H41         3.5640   -3.2340    3.7000 hc        1 MOL      0.013051
     97 H42         3.5160   -3.3570    2.0270 hc        1 MOL      0.013051
     98 H43         3.1720   -1.7640    2.8150 hc        1 MOL      0.013051
     99 H44         2.1430   -3.3460    5.7590 hc        1 MOL      0.063584
    100 H45         2.6660   -1.7190    5.2980 hc        1 MOL      0.063584
    101 H46         1.2410   -1.8130    6.2470 hc        1 MOL      0.063584
    102 N10         1.8270   -2.2080   -0.1170 n         1 MOL     -0.571910
    103 C32         2.4800   -2.0750   -1.4250 c3        1 MOL      0.142535
    104 C33         3.8520   -1.3880   -1.2400 c         1 MOL      0.458600
    105 O16         4.0270   -0.5940   -0.3270 o         1 MOL     -0.321964
    106 C34         1.5730   -1.3520   -2.4670 c3        1 MOL     -0.278413
    107 C35         0.1820   -1.9710   -2.4490 c         1 MOL      0.839287
    108 O17        -0.7620   -1.5930   -1.7300 o         1 MOL     -0.708558
    109 O18        -0.0800   -2.7230   -3.3870 o         1 MOL     -0.708558
    110 H47         1.6000   -1.3190    0.3220 hn        1 MOL      0.390440
    111 H48         2.5600   -3.0690   -1.8760 h1        1 MOL      0.046286
    112 H49         2.0510   -1.4450   -3.4460 hc        1 MOL      0.061164
    113 H50         1.4650   -0.3180   -2.1410 hc        1 MOL      0.061164
    114 N11         4.8390   -1.5310   -2.1120 n         1 MOL     -0.796600
    115 C36         6.2240   -1.5050   -1.6030 c3        1 MOL      0.565551
    116 C37         6.6310   -0.0690   -1.0210 c         1 MOL      0.233657
    117 O19         7.2990   -0.0700    0.0020 o         1 MOL     -0.471508
    118 C38         7.1730   -1.9790   -2.7160 c3        1 MOL     -0.452359
    119 C39         8.6040   -1.9530   -2.1370 ca        1 MOL      0.230456
    120 C40         8.9970   -2.6350   -0.9700 ca        1 MOL     -0.172684
    121 C41         9.5770   -1.3950   -2.9770 ca        1 MOL     -0.172684
    122 C42        10.3110   -2.6470   -0.5100 ca        1 MOL     -0.139559
    123 C43        10.9570   -1.5850   -2.6460 ca        1 MOL     -0.139559
    124 C44        11.3600   -2.1370   -1.3900 ca        1 MOL     -0.124485
    125 H51         4.6260   -1.9170   -3.0240 hn        1 MOL      0.389140
    126 H52         6.2810   -2.1840   -0.7540 h1        1 MOL      0.042390
    127 H53         7.0660   -1.2750   -3.5450 hc        1 MOL      0.110914
    128 H54         6.9930   -3.0140   -3.0120 hc        1 MOL      0.110914
    129 H55         8.2470   -3.1140   -0.3410 ha        1 MOL      0.109946
    130 H56         9.2890   -1.0240   -3.9460 ha        1 MOL      0.109946
    131 H57        10.4900   -3.0320    0.4870 ha        1 MOL      0.122756
    132 H58        11.7100   -1.1440   -3.2770 ha        1 MOL      0.122756
    133 H59        12.4010   -2.2400   -1.1150 ha        1 MOL      0.110652
    134 N12         6.3090    1.0670   -1.6510 n         1 MOL     -0.055025
    135 C45         6.6050    2.3760   -1.2170 c3        1 MOL      0.061473
    136 C46         5.7870    2.7930    0.0550 c         1 MOL      0.301788
    137 O20         6.2340    3.6900    0.7790 o         1 MOL     -0.498542
    138 C47         6.4090    3.4530   -2.3260 c3        1 MOL     -0.203352
    139 C48         6.4130    2.5270   -3.5390 c3        1 MOL      0.016207
    140 C49         5.6860    1.2500   -2.9230 c3        1 MOL     -0.121147
    141 H60         7.6420    2.4650   -0.8660 h1        1 MOL      0.080730
    142 H61         5.4690    4.0090   -2.2450 hc        1 MOL      0.096217
    143 H62         7.3220    4.0430   -2.3950 hc        1 MOL      0.096217
    144 H63         5.8460    2.8480   -4.4180 hc        1 MOL      0.011105
    145 H64         7.4090    2.2810   -3.8950 hc        1 MOL      0.011105
    146 H65         4.6210    1.4820   -2.9500 h1        1 MOL      0.088107
    147 H66         5.8020    0.3390   -3.5230 h1        1 MOL      0.088107
    148 N13         4.7140    2.0010    0.4160 n         1 MOL     -0.082354
    149 C50         4.1090    2.0840    1.7310 c3        1 MOL     -0.320401
    150 C51         4.8950    1.2950    2.8070 c         1 MOL      0.567744
    151 O21         4.9920    1.6690    3.9980 o         1 MOL     -0.563417
    152 C52         2.7420    1.4100    1.6530 c3        1 MOL     -0.007234
    153 C53         1.7950    1.9440    0.5330 c3        1 MOL     -0.123073
    154 C54         0.4690    1.1900    0.4550 c         1 MOL      0.563603
    155 O22         0.2780    0.0910    0.9830 o         1 MOL     -0.648319
    156 O23        -0.4220    1.6410   -0.2630 o         1 MOL     -0.648319
    157 H67         4.4850    1.2570   -0.2270 hn        1 MOL      0.115248
    158 H68         3.9680    3.1510    1.9000 h1        1 MOL      0.182739
    159 H69         2.3590    1.6560    2.6420 hc        1 MOL      0.048333
    160 H70         2.8900    0.3290    1.6070 hc        1 MOL      0.048333
    161 H71         2.2760    1.8180   -0.4400 hc        1 MOL      0.068978
    162 H72         1.4610    2.9680    0.6880 hc        1 MOL      0.068978
    163 N14         5.6720    0.2800    2.3710 n         1 MOL     -0.061136
    164 C55         6.6240   -0.3750    3.2730 c3        1 MOL     -0.215844
    165 H73         6.2520   -0.3200    4.2950 h1        1 MOL      0.082429
    166 H74         6.7380   -1.4200    2.9840 h1        1 MOL      0.082429
    167 H75         7.5890    0.1270    3.2100 h1        1 MOL      0.082429
    168 H76         5.3950   -0.1260    1.4800 hn        1 MOL      0.048595
    169 Ca1        -2.3090   -0.1650   -0.2240 Ca        1 MOL      1.631744
    170 O24        -4.0500   -0.7810    1.6500 oh        1 MOL     -0.822718
    171 H77        -4.7720   -0.2270    1.9550 ho        1 MOL      0.400665
    172 H78        -3.3930   -0.7240    2.3430 ho        1 MOL      0.400665
    173 O25        -1.8390    0.1010    2.7870 oh        1 MOL     -0.822718
    174 H79        -1.6470    0.3930    3.6820 ho        1 MOL      0.400665
    175 H80        -0.9730   -0.0710    2.4090 ho        1 MOL      0.400665
@<TRIPOS>BOND
     1    1    2 1   
     2    1    4 1   
     3    1    5 1   
     4    1    6 1   
     5    2    3 2   
     6    2    7 1   
     7    7    8 1   
     8    7   15 1   
     9    8    9 1   
    10    8   11 1   
    11    8   16 1   
    12    9   10 2   
    13    9   19 1   
    14   11   12 1   
    15   11   17 1   
    16   11   18 1   
    17   12   13 1   
    18   12   14 1   
    19   19   20 1   
    20   19   24 1   
    21   20   21 1   
    22   20   23 1   
    23   20   25 1   
    24   21   22 2   
    25   21   29 1   
    26   23   26 1   
    27   23   27 1   
    28   23   28 1   
    29   29   30 1   
    30   29   37 1   
    31   30   31 1   
    32   30   33 1   
    33   30   38 1   
    34   31   32 2   
    35   31   41 1   
    36   33   34 1   
    37   33   39 1   
    38   33   40 1   
    39   34   35 1   
    40   34   36 1   
    41   41   42 1   
    42   41   45 1   
    43   42   43 1   
    44   42   46 1   
    45   42   47 1   
    46   43   44 2   
    47   43   48 1   
    48   48   49 1   
    49   48   56 1   
    50   49   50 1   
    51   49   52 1   
    52   49   57 1   
    53   50   51 2   
    54   50   62 1   
    55   52   53 1   
    56   52   58 1   
    57   52   59 1   
    58   53   54 1   
    59   53   55 2   
    60   54   60 1   
    61   54   61 1   
    62   62   63 1   
    63   62   66 1   
    64   63   64 1   
    65   63   67 1   
    66   63   68 1   
    67   64   65 2   
    68   64   69 1   
    69   69   70 1   
    70   69   76 1   
    71   70   71 1   
    72   70   73 1   
    73   70   77 1   
    74   71   72 2   
    75   71   83 1   
    76   73   74 1   
    77   73   75 1   
    78   73   78 1   
    79   74   80 1   
    80   74   81 1   
    81   74   82 1   
    82   75   79 1   
    83   83   84 1   
    84   83   91 1   
    85   84   85 1   
    86   84   87 1   
    87   84   92 1   
    88   85   86 2   
    89   85  102 1   
    90   87   88 1   
    91   87   89 1   
    92   87   93 1   
    93   88   90 1   
    94   88   94 1   
    95   88   95 1   
    96   89   96 1   
    97   89   97 1   
    98   89   98 1   
    99   90   99 1   
   100   90  100 1   
   101   90  101 1   
   102  102  103 1   
   103  102  110 1   
   104  103  104 1   
   105  103  106 1   
   106  103  111 1   
   107  104  105 2   
   108  104  114 1   
   109  106  107 1   
   110  106  112 1   
   111  106  113 1   
   112  107  108 1   
   113  107  109 1   
   114  114  115 1   
   115  114  125 1   
   116  115  116 1   
   117  115  118 1   
   118  115  126 1   
   119  116  117 2   
   120  116  134 1   
   121  118  119 1   
   122  118  127 1   
   123  118  128 1   
   124  119  120 ar  
   125  119  121 ar  
   126  120  122 ar  
   127  120  129 1   
   128  121  123 ar  
   129  121  130 1   
   130  122  124 ar  
   131  122  131 1   
   132  123  124 ar  
   133  123  132 1   
   134  124  133 1   
   135  134  135 1   
   136  134  140 1   
   137  135  136 1   
   138  135  138 1   
   139  135  141 1   
   140  136  137 2   
   141  136  148 1   
   142  138  139 1   
   143  138  142 1   
   144  138  143 1   
   145  139  140 1   
   146  139  144 1   
   147  139  145 1   
   148  140  146 1   
   149  140  147 1   
   150  148  149 1   
   151  148  157 1   
   152  149  150 1   
   153  149  152 1   
   154  149  158 1   
   155  150  151 2   
   156  150  163 1   
   157  152  153 1   
   158  152  159 1   
   159  152  160 1   
   160  153  154 1   
   161  153  161 1   
   162  153  162 1   
   163  154  155 1   
   164  154  156 1   
   165  163  164 1   
   166  163  168 1   
   167  164  165 1   
   168  164  166 1   
   169  164  167 1   
   170  170  171 1   
   171  170  172 1   
   172  173  174 1   
   173  173  175 1   
@<TRIPOS>SUBSTRUCTURE
     1 MOL         1 TEMP              0 ****  ****    0 ROOT
