@<TRIPOS>MOLECULE
MOL
  179   176     1     0     0
SMALL
resp


@<TRIPOS>ATOM
      1 C1          0.1490    5.0070   -4.2700 c3        1 MOL     -0.347818
      2 C2          0.5880    4.2200   -3.0920 c         1 MOL      0.640406
      3 O1         -0.0240    4.4760   -2.0200 o         1 MOL     -0.530086
      4 H1         -0.4480    4.3740   -4.9270 hc        1 MOL      0.080585
      5 H2         -0.4530    5.8540   -3.9390 hc        1 MOL      0.080585
      6 H3          1.0220    5.3710   -4.8120 hc        1 MOL      0.080585
      7 N1          1.5970    3.3490   -3.3080 n         1 MOL     -0.481476
      8 C3          2.1960    2.5970   -2.2440 c3        1 MOL      0.109262
      9 C4          3.1500    3.4770   -1.4980 c         1 MOL      0.445588
     10 O2          4.3650    3.3570   -1.6750 o         1 MOL     -0.486971
     11 C5          2.8560    1.2070   -2.6710 c3        1 MOL     -0.144951
     12 C6          3.4960    0.4730   -1.5390 c         1 MOL      0.656917
     13 O3          2.9080    0.4720   -0.4000 o         1 MOL     -0.679209
     14 O4          4.5730   -0.1600   -1.7490 o         1 MOL     -0.679209
     15 H4          1.9610    3.2900   -4.2430 hn        1 MOL      0.316066
     16 H5          1.3800    2.4010   -1.5540 h1        1 MOL      0.008351
     17 H6          3.4600    1.2860   -3.5760 hc        1 MOL      0.043370
     18 H7          2.0190    0.5480   -2.8840 hc        1 MOL      0.043370
     19 N2          2.6470    4.4060   -0.7660 n         1 MOL     -0.365528
     20 C7          3.3520    5.5760   -0.1580 c3        1 MOL      0.078158
     21 C8          4.3160    5.2790    0.9880 c         1 MOL      0.378801
     22 O5          5.3750    5.9040    1.0750 o         1 MOL     -0.536640
     23 C9          2.2370    6.6180    0.2430 c3        1 MOL     -0.267061
     24 C10         1.6280    7.4020   -0.9610 c3        1 MOL      0.136171
     25 C11         0.6420    8.4660   -0.5970 c3        1 MOL     -0.109918
     26 C12        -0.1160    8.8430   -1.8170 c3        1 MOL      0.124813
     27 N3         -0.8590   10.0870   -1.5500 n4        1 MOL     -0.364364
     28 H8          1.6860    4.4400   -0.4620 hn        1 MOL      0.335291
     29 H9          3.9910    5.9390   -0.9630 h1        1 MOL      0.088384
     30 H10         2.6810    7.3270    0.9530 hc        1 MOL      0.088652
     31 H11         1.5150    5.9900    0.7460 hc        1 MOL      0.088652
     32 H12         1.1200    6.6240   -1.5420 hc        1 MOL     -0.021347
     33 H13         2.4230    7.7360   -1.6340 hc        1 MOL     -0.021347
     34 H14         1.0440    9.3180   -0.0520 hc        1 MOL      0.051238
     35 H15        -0.0530    7.9700    0.0830 hc        1 MOL      0.051238
     36 H16        -0.7890    8.0410   -2.0910 hx        1 MOL      0.067954
     37 H17         0.5450    8.9650   -2.6690 hx        1 MOL      0.067954
     38 H18        -1.4940    9.9580   -0.7710 hn        1 MOL      0.323573
     39 H19        -0.2500   10.8560   -1.3230 hn        1 MOL      0.323573
     40 H20        -1.4440   10.3880   -2.3140 hn        1 MOL      0.323573
     41 N4          3.9770    4.2930    1.7630 n         1 MOL     -0.169498
     42 C13         4.8080    3.6660    2.8000 c3        1 MOL     -0.050384
     43 C14         5.8450    2.6080    2.2130 c         1 MOL      0.395853
     44 O6          6.7130    2.1000    2.9510 o         1 MOL     -0.520744
     45 C15         3.8350    2.8990    3.7770 c3        1 MOL     -0.192532
     46 C16         3.0010    1.8300    2.9720 c         1 MOL      0.695967
     47 O7          3.2150    0.6440    2.9980 o         1 MOL     -0.702526
     48 O8          2.0400    2.1880    2.2800 o         1 MOL     -0.702526
     49 H21         3.0570    3.9150    1.6070 hn        1 MOL      0.136192
     50 H22         5.3400    4.4150    3.4000 h1        1 MOL      0.122545
     51 H23         3.2380    3.6540    4.2930 hc        1 MOL      0.065980
     52 H24         4.3580    2.4390    4.6130 hc        1 MOL      0.065980
     53 N5          5.7900    2.2610    0.8810 n         1 MOL     -0.091326
     54 C17         6.7530    1.4580    0.1030 c3        1 MOL     -0.165280
     55 C18         6.8330   -0.0470    0.6220 c         1 MOL      0.481684
     56 O9          7.8190   -0.7350    0.3670 o         1 MOL     -0.595783
     57 H25         5.0250    2.6820    0.3630 hn        1 MOL      0.115524
     58 H26         7.7470    1.8950    0.1630 h1        1 MOL      0.111123
     59 H27         6.5620    1.4540   -0.9700 h1        1 MOL      0.111123
     60 N6          5.8860   -0.5580    1.3440 n         1 MOL     -0.156885
     61 C19         5.8790   -2.0170    1.7490 c3        1 MOL     -0.060356
     62 C20         5.6260   -3.0120    0.5500 c         1 MOL      0.265869
     63 O10         5.6130   -4.1820    0.8790 o         1 MOL     -0.434763
     64 C21         4.9360   -2.1660    2.8930 c3        1 MOL     -0.184669
     65 C22         3.5240   -2.4490    2.4260 c         1 MOL      0.541396
     66 N7          2.7440   -2.9560    3.2880 n         1 MOL     -0.667199
     67 O11         3.0570   -1.9630    1.3600 o         1 MOL     -0.396776
     68 H28         5.0510    0.0120    1.3770 hn        1 MOL      0.139945
     69 H29         6.8600   -2.3680    2.0570 h1        1 MOL      0.135054
     70 H30         4.9030   -1.2910    3.5470 hc        1 MOL      0.080994
     71 H31         5.2100   -3.0710    3.4280 hc        1 MOL      0.080994
     72 H32         3.0320   -3.3710    4.1600 hn        1 MOL      0.317142
     73 H33         1.7360   -2.9330    3.2190 hn        1 MOL      0.317142
     74 N8          5.3250   -2.5220   -0.7030 n         1 MOL     -0.027401
     75 C23         5.1860   -3.3300   -1.9490 c3        1 MOL     -0.526225
     76 C24         3.7810   -3.8270   -2.1560 c         1 MOL      0.840125
     77 O12         3.5450   -4.5670   -3.0640 o         1 MOL     -0.612080
     78 H34         5.2420   -1.5210   -0.7950 hn        1 MOL      0.273827
     79 H35         5.8280   -4.2120   -1.9740 h1        1 MOL      0.186191
     80 H36         5.4370   -2.6420   -2.7650 h1        1 MOL      0.186191
     81 N9          2.7880   -3.3830   -1.3650 n         1 MOL     -0.527060
     82 C25         1.4090   -3.8200   -1.4390 c3        1 MOL      0.290681
     83 C26         0.4470   -2.6620   -1.2870 c         1 MOL      0.494713
     84 O13         0.7190   -1.5600   -0.7960 o         1 MOL     -0.647811
     85 C27         1.2310   -4.9690   -0.4900 c3        1 MOL      0.009830
     86 C28         2.1990   -6.2170   -0.6290 ca        1 MOL      0.044057
     87 C29         3.2680   -6.4140    0.2420 ca        1 MOL     -0.241176
     88 C30         1.9770   -7.0810   -1.7510 ca        1 MOL     -0.241176
     89 C31         4.1690   -7.4890    0.0740 ca        1 MOL     -0.129523
     90 C32         2.9060   -8.1570   -1.9700 ca        1 MOL     -0.129523
     91 C33         3.9300   -8.3920   -0.9900 ca        1 MOL      0.203641
     92 O14         4.8050   -9.4450   -1.1860 oh        1 MOL     -0.462333
     93 H37         2.9760   -2.6530   -0.6890 hn        1 MOL      0.218134
     94 H38         1.2390   -4.1980   -2.4450 h1        1 MOL     -0.000810
     95 H39         0.1930   -5.2980   -0.5820 hc        1 MOL     -0.023036
     96 H40         1.3750   -4.5690    0.5180 hc        1 MOL     -0.023036
     97 H41         3.4530   -5.6750    1.0110 ha        1 MOL      0.146446
     98 H42         1.1190   -6.9950   -2.4010 ha        1 MOL      0.146446
     99 H43         5.0520   -7.6270    0.6800 ha        1 MOL      0.126373
    100 H44         2.8170   -8.8360   -2.8150 ha        1 MOL      0.126373
    101 H45         4.4880  -10.1310   -1.7900 ho        1 MOL      0.345717
    102 N10        -0.8320   -2.8650   -1.6610 n         1 MOL     -0.531848
    103 C34        -1.9760   -1.9490   -1.4870 c3        1 MOL     -0.056549
    104 C35        -3.2420   -2.7250   -1.1740 c         1 MOL      0.623664
    105 O15        -3.6390   -3.6680   -1.8900 o         1 MOL     -0.538785
    106 C36        -2.1400   -1.0570   -2.7300 c3        1 MOL      0.108199
    107 C37        -0.8290   -0.3240   -3.1320 c3        1 MOL      0.189495
    108 C38        -3.2360    0.0290   -2.5640 c3        1 MOL     -0.319248
    109 C39        -0.9130    0.5000   -4.4510 c3        1 MOL     -0.160061
    110 H46        -0.8680   -3.7120   -2.2060 hn        1 MOL      0.301293
    111 H47        -1.8260   -1.2290   -0.6890 h1        1 MOL      0.162011
    112 H48        -2.3910   -1.6390   -3.6140 hc        1 MOL      0.000180
    113 H49        -0.1360   -1.1270   -3.3780 hc        1 MOL     -0.006082
    114 H50        -0.4220    0.2710   -2.3140 hc        1 MOL     -0.006082
    115 H51        -4.1730   -0.3470   -2.1460 hc        1 MOL      0.062320
    116 H52        -2.8610    0.7950   -1.8850 hc        1 MOL      0.062320
    117 H53        -3.3720    0.5540   -3.5080 hc        1 MOL      0.062320
    118 H54         0.0530    0.6610   -4.9160 hc        1 MOL      0.032361
    119 H55        -1.4210   -0.0080   -5.2760 hc        1 MOL      0.032361
    120 H56        -1.3410    1.4980   -4.3670 hc        1 MOL      0.032361
    121 N11        -3.9610   -2.4520   -0.0530 n         1 MOL     -0.493299
    122 C40        -5.2830   -3.0370    0.1520 c3        1 MOL      0.090611
    123 C41        -6.5170   -2.2680   -0.2860 c         1 MOL      0.476092
    124 O16        -6.3630   -1.1830   -0.8090 o         1 MOL     -0.401282
    125 C42        -5.4820   -3.2930    1.6910 c3        1 MOL      0.031603
    126 O17        -5.1910   -2.1430    2.4430 oh        1 MOL     -0.510087
    127 H57        -3.7180   -1.6500    0.5210 hn        1 MOL      0.269800
    128 H58        -5.4090   -3.9900   -0.3460 h1        1 MOL      0.055000
    129 H59        -4.9040   -4.1470    2.0320 h1        1 MOL      0.056400
    130 H60        -6.5130   -3.6150    1.8470 h1        1 MOL      0.056400
    131 H61        -4.2480   -2.0140    2.6030 ho        1 MOL      0.378094
    132 N12        -7.7090   -2.8230   -0.1380 n         1 MOL     -0.374141
    133 C43        -8.9970   -2.2080   -0.5820 c3        1 MOL     -0.040110
    134 C44        -9.5500   -1.1250    0.3180 c         1 MOL      0.528977
    135 O18       -10.3270   -0.3250   -0.1330 o         1 MOL     -0.481753
    136 C45        -9.8880   -3.3880   -0.5910 c3        1 MOL     -0.177308
    137 H62        -7.7520   -3.7720    0.1880 hn        1 MOL      0.246614
    138 H63        -8.7850   -1.7680   -1.5600 h1        1 MOL      0.129922
    139 H64       -10.8850   -3.1500   -0.9710 hc        1 MOL      0.069949
    140 H65        -9.5680   -4.1610   -1.2970 hc        1 MOL      0.069949
    141 H66       -10.0450   -3.8510    0.3770 hc        1 MOL      0.069949
    142 N13        -8.9230   -1.0160    1.5570 n         1 MOL     -0.399273
    143 C46        -8.8740    0.0280    2.4220 c3        1 MOL      0.079265
    144 C47        -7.8940    1.1490    1.9440 c         1 MOL      0.401826
    145 O19        -8.2740    2.3160    1.8490 o         1 MOL     -0.521161
    146 C48        -8.5890   -0.5510    3.8380 c3        1 MOL     -0.073638
    147 H67        -8.2730   -1.7440    1.7960 hn        1 MOL      0.246748
    148 H68        -9.8840    0.3980    2.5760 h1        1 MOL      0.080283
    149 H69        -8.6710    0.2420    4.5870 hc        1 MOL      0.025608
    150 H70        -9.2790   -1.3450    4.1180 hc        1 MOL      0.025608
    151 H71        -7.5650   -0.9400    3.8380 hc        1 MOL      0.025608
    152 N14        -6.6470    0.8420    1.6210 n         1 MOL     -0.181196
    153 C49        -5.5930    1.7880    1.1440 c3        1 MOL      0.010910
    154 C50        -5.8540    2.4040   -0.2300 c         1 MOL      0.423704
    155 O20        -5.7430    3.6150   -0.3450 o         1 MOL     -0.547994
    156 C51        -4.2090    1.1650    1.2920 c3        1 MOL      0.003626
    157 C52        -3.0030    2.0850    1.2030 c3        1 MOL     -0.231285
    158 C53        -1.6830    1.3390    1.0770 c         1 MOL      0.951556
    159 O21        -0.6080    1.9050    0.8290 o         1 MOL     -0.843498
    160 O22        -1.6310    0.1110    1.1970 o         1 MOL     -0.843498
    161 H72        -6.4540   -0.1390    1.7000 hn        1 MOL      0.071708
    162 H73        -5.5930    2.6230    1.8390 h1        1 MOL      0.091132
    163 H74        -4.0330    0.3670    0.5730 hc        1 MOL     -0.003693
    164 H75        -4.1790    0.8330    2.3280 hc        1 MOL     -0.003693
    165 H76        -2.9560    2.8050    2.0220 hc        1 MOL      0.058677
    166 H77        -3.1430    2.7590    0.3600 hc        1 MOL      0.058677
    167 N15        -6.4680    1.6980   -1.1860 n         1 MOL      0.010245
    168 C54        -7.0700    2.2740   -2.3360 c3        1 MOL     -0.329592
    169 H78        -7.6620    1.5180   -2.8520 h1        1 MOL      0.113469
    170 H79        -7.7180    3.0970   -2.0330 h1        1 MOL      0.113469
    171 H80        -6.2950    2.6480   -3.0050 h1        1 MOL      0.113469
    172 H81        -6.5550    0.7020   -1.0140 hn        1 MOL      0.098175
    173 Ca1         1.1330   -0.0090    1.2980 Ca        1 MOL      1.728108
    174 O23         0.1020   -2.4430    2.3120 oh        1 MOL     -0.797845
    175 H82        -0.4530   -2.3230    3.0820 ho        1 MOL      0.401683
    176 H83        -0.2950   -3.1860    1.8460 ho        1 MOL      0.401683
    177 O24         0.2870   -0.0210    3.9040 oh        1 MOL     -0.797845
    178 H84        -0.1020    0.7040    4.3800 ho        1 MOL      0.401683
    179 H85         0.3060   -0.7430    4.5330 ho        1 MOL      0.401683
@<TRIPOS>BOND
     1    1    2 1   
     2    1    4 1   
     3    1    5 1   
     4    1    6 1   
     5    2    3 2   
     6    2    7 1   
     7    7    8 1   
     8    7   15 1   
     9    8    9 1   
    10    8   11 1   
    11    8   16 1   
    12    9   10 2   
    13    9   19 1   
    14   11   12 1   
    15   11   17 1   
    16   11   18 1   
    17   12   13 1   
    18   12   14 1   
    19   19   20 1   
    20   19   28 1   
    21   20   21 1   
    22   20   23 1   
    23   20   29 1   
    24   21   22 2   
    25   21   41 1   
    26   23   24 1   
    27   23   30 1   
    28   23   31 1   
    29   24   25 1   
    30   24   32 1   
    31   24   33 1   
    32   25   26 1   
    33   25   34 1   
    34   25   35 1   
    35   26   27 1   
    36   26   36 1   
    37   26   37 1   
    38   27   38 1   
    39   27   39 1   
    40   27   40 1   
    41   41   42 1   
    42   41   49 1   
    43   42   43 1   
    44   42   45 1   
    45   42   50 1   
    46   43   44 2   
    47   43   53 1   
    48   45   46 1   
    49   45   51 1   
    50   45   52 1   
    51   46   47 1   
    52   46   48 1   
    53   53   54 1   
    54   53   57 1   
    55   54   55 1   
    56   54   58 1   
    57   54   59 1   
    58   55   56 2   
    59   55   60 1   
    60   60   61 1   
    61   60   68 1   
    62   61   62 1   
    63   61   64 1   
    64   61   69 1   
    65   62   63 2   
    66   62   74 1   
    67   64   65 1   
    68   64   70 1   
    69   64   71 1   
    70   65   66 1   
    71   65   67 2   
    72   66   72 1   
    73   66   73 1   
    74   74   75 1   
    75   74   78 1   
    76   75   76 1   
    77   75   79 1   
    78   75   80 1   
    79   76   77 2   
    80   76   81 1   
    81   81   82 1   
    82   81   93 1   
    83   82   83 1   
    84   82   85 1   
    85   82   94 1   
    86   83   84 2   
    87   83  102 1   
    88   85   86 1   
    89   85   95 1   
    90   85   96 1   
    91   86   87 ar  
    92   86   88 ar  
    93   87   89 ar  
    94   87   97 1   
    95   88   90 ar  
    96   88   98 1   
    97   89   91 ar  
    98   89   99 1   
    99   90   91 ar  
   100   90  100 1   
   101   91   92 1   
   102   92  101 1   
   103  102  103 1   
   104  102  110 1   
   105  103  104 1   
   106  103  106 1   
   107  103  111 1   
   108  104  105 2   
   109  104  121 1   
   110  106  107 1   
   111  106  108 1   
   112  106  112 1   
   113  107  109 1   
   114  107  113 1   
   115  107  114 1   
   116  108  115 1   
   117  108  116 1   
   118  108  117 1   
   119  109  118 1   
   120  109  119 1   
   121  109  120 1   
   122  121  122 1   
   123  121  127 1   
   124  122  123 1   
   125  122  125 1   
   126  122  128 1   
   127  123  124 2   
   128  123  132 1   
   129  125  126 1   
   130  125  129 1   
   131  125  130 1   
   132  126  131 1   
   133  132  133 1   
   134  132  137 1   
   135  133  134 1   
   136  133  136 1   
   137  133  138 1   
   138  134  135 2   
   139  134  142 1   
   140  136  139 1   
   141  136  140 1   
   142  136  141 1   
   143  142  143 1   
   144  142  147 1   
   145  143  144 1   
   146  143  146 1   
   147  143  148 1   
   148  144  145 2   
   149  144  152 1   
   150  146  149 1   
   151  146  150 1   
   152  146  151 1   
   153  152  153 1   
   154  152  161 1   
   155  153  154 1   
   156  153  156 1   
   157  153  162 1   
   158  154  155 2   
   159  154  167 1   
   160  156  157 1   
   161  156  163 1   
   162  156  164 1   
   163  157  158 1   
   164  157  165 1   
   165  157  166 1   
   166  158  159 1   
   167  158  160 1   
   168  167  168 1   
   169  167  172 1   
   170  168  169 1   
   171  168  170 1   
   172  168  171 1   
   173  174  175 1   
   174  174  176 1   
   175  177  178 1   
   176  177  179 1   
@<TRIPOS>SUBSTRUCTURE
     1 MOL         1 TEMP              0 ****  ****    0 ROOT
