@<TRIPOS>MOLECULE
MOL
  189   185     1     0     0
SMALL
resp


@<TRIPOS>ATOM
      1 C1          1.2010   -3.7330    6.1140 c3        1 MOL     -0.529793
      2 C2          1.3650   -3.3200    4.6170 c         1 MOL      0.753133
      3 O1          0.7700   -2.3420    4.1660 o         1 MOL     -0.627824
      4 H1          2.0110   -3.2980    6.7010 hc        1 MOL      0.138682
      5 H2          0.2450   -3.3680    6.4890 hc        1 MOL      0.138682
      6 H3          1.2350   -4.8190    6.1980 hc        1 MOL      0.138682
      7 N1          2.2090   -3.9880    3.8830 n         1 MOL     -0.612474
      8 C3          2.6330   -3.6510    2.5050 c3        1 MOL      0.327547
      9 C4          2.3340   -4.8480    1.5370 c         1 MOL      0.471765
     10 O2          2.2050   -6.0150    1.9800 o         1 MOL     -0.577551
     11 C5          4.1060   -3.2540    2.5470 c3        1 MOL     -0.370298
     12 C6          4.5040   -2.8670    1.1230 c         1 MOL      0.697979
     13 O3          3.8770   -2.0040    0.4790 o         1 MOL     -0.661607
     14 O4          5.4450   -3.5140    0.5730 o         1 MOL     -0.661607
     15 H4          2.6810   -4.7790    4.2890 hn        1 MOL      0.304075
     16 H5          1.9670   -2.8500    2.2200 h1        1 MOL     -0.017469
     17 H6          4.6240   -4.1550    2.8660 hc        1 MOL      0.067113
     18 H7          4.2450   -2.4040    3.2210 hc        1 MOL      0.067113
     19 N2          2.1060   -4.4890    0.2480 n         1 MOL     -0.326740
     20 C7          1.7460   -5.3200   -0.8980 c3        1 MOL     -0.033369
     21 C8          2.6960   -5.1040   -2.1420 c         1 MOL      0.554506
     22 O5          2.9450   -6.0440   -2.8700 o         1 MOL     -0.571851
     23 C9          0.1860   -5.1700   -1.0400 c3        1 MOL      0.181002
     24 C10        -0.6910   -5.8540    0.0570 c3        1 MOL      0.139790
     25 C11        -0.3680   -5.7660   -2.3410 c3        1 MOL     -0.280581
     26 C12        -0.5140   -7.3500    0.2770 c3        1 MOL     -0.232052
     27 H8          2.1030   -3.4910    0.0890 hn        1 MOL      0.325988
     28 H9          1.9590   -6.3420   -0.5820 h1        1 MOL      0.085053
     29 H10        -0.1810   -4.1460   -1.0920 hc        1 MOL      0.009263
     30 H11        -1.7420   -5.5930   -0.0680 hc        1 MOL     -0.003944
     31 H12        -0.4460   -5.3860    1.0070 hc        1 MOL     -0.003944
     32 H13        -1.4460   -5.7010   -2.3690 hc        1 MOL      0.050241
     33 H14         0.1270   -5.2780   -3.1900 hc        1 MOL      0.050241
     34 H15        -0.0690   -6.8060   -2.3670 hc        1 MOL      0.050241
     35 H16        -0.8080   -7.9670   -0.5720 hc        1 MOL      0.037285
     36 H17         0.5460   -7.5240    0.4600 hc        1 MOL      0.037285
     37 H18        -1.1750   -7.7130    1.0630 hc        1 MOL      0.037285
     38 N3          3.2930   -3.8830   -2.2600 n         1 MOL     -0.252599
     39 C13         3.9080   -3.3700   -3.5020 c3        1 MOL      0.053921
     40 C14         5.2680   -2.6260   -3.3070 c         1 MOL      0.306470
     41 O6          5.9430   -2.3230   -4.3220 o         1 MOL     -0.508834
     42 C15         2.8170   -2.5510   -4.2680 c3        1 MOL     -0.268673
     43 C16         2.3820   -1.2880   -3.5110 c         1 MOL      0.810156
     44 O7          2.7350   -1.1090   -2.3170 o         1 MOL     -0.718907
     45 O8          1.7520   -0.4250   -4.1860 o         1 MOL     -0.718907
     46 H19         3.1680   -3.2490   -1.4840 hn        1 MOL      0.042847
     47 H20         4.0770   -4.1990   -4.1930 h1        1 MOL      0.083433
     48 H21         1.9230   -3.1750   -4.3470 hc        1 MOL      0.075001
     49 H22         3.2340   -2.1340   -5.1810 hc        1 MOL      0.075001
     50 N4          5.6500   -2.3030   -2.0480 n         1 MOL      0.001408
     51 C17         6.9700   -1.7340   -1.8450 c3        1 MOL     -0.128922
     52 C18         7.2350   -0.3050   -2.2920 c         1 MOL      0.350651
     53 O9          8.4040    0.0700   -2.6400 o         1 MOL     -0.588297
     54 H23         5.0460   -2.5150   -1.2680 hn        1 MOL      0.062568
     55 H24         7.7730   -2.2430   -2.3820 h1        1 MOL      0.077968
     56 H25         7.1760   -1.7230   -0.7750 h1        1 MOL      0.077968
     57 N5          6.2220    0.5160   -2.3570 n         1 MOL      0.084032
     58 C19         6.2620    1.8950   -2.8480 c3        1 MOL     -0.231852
     59 C20         6.5860    2.9370   -1.7080 c         1 MOL      0.467762
     60 O10         6.9490    4.1070   -1.9960 o         1 MOL     -0.529906
     61 C21         4.8860    2.3370   -3.4250 c3        1 MOL     -0.294581
     62 C22         3.6760    2.2920   -2.3960 c         1 MOL      0.822870
     63 O11         3.7900    1.7610   -1.3060 o         1 MOL     -0.726702
     64 O12         2.5760    2.7580   -2.8440 o         1 MOL     -0.726702
     65 H26         5.3150    0.1500   -2.0610 hn        1 MOL      0.100550
     66 H27         6.9300    1.9180   -3.7090 h1        1 MOL      0.157914
     67 H28         4.6580    1.5990   -4.1980 hc        1 MOL      0.104386
     68 H29         4.9060    3.3710   -3.7830 hc        1 MOL      0.104386
     69 N6          6.4760    2.6110   -0.3840 n         1 MOL     -0.336759
     70 C23         6.6860    3.5000    0.8040 c3        1 MOL     -0.074511
     71 C24         5.4320    4.0170    1.5580 c         1 MOL      0.457424
     72 O13         5.5890    4.7310    2.5550 o         1 MOL     -0.594989
     73 H30         6.1170    1.6850   -0.1970 hn        1 MOL      0.198381
     74 H31         7.3310    4.2770    0.4100 h1        1 MOL      0.085281
     75 H32         7.2360    2.9620    1.5820 h1        1 MOL      0.085281
     76 N7          4.1720    3.6180    1.2190 n         1 MOL     -0.077453
     77 C25         2.9340    4.1450    1.8930 c3        1 MOL     -0.260090
     78 C26         1.8360    3.1120    1.7830 c         1 MOL      0.633901
     79 O14         1.6790    2.3920    0.8050 o         1 MOL     -0.594131
     80 C27         2.5310    5.4130    1.1430 c3        1 MOL      0.001201
     81 C28         3.2360    6.7540    1.4280 c3        1 MOL     -0.340480
     82 C29         2.6140    7.9280    0.6720 c         1 MOL      0.573675
     83 N8          2.9510    8.1950   -0.6010 n         1 MOL     -0.673652
     84 O15         1.7390    8.6090    1.2110 o         1 MOL     -0.548740
     85 H33         4.0370    3.0200    0.4160 hn        1 MOL      0.176603
     86 H34         3.1490    4.3440    2.9380 h1        1 MOL      0.128717
     87 H35         1.5150    5.6320    1.5080 hc        1 MOL      0.084972
     88 H36         2.4300    5.2970    0.0700 hc        1 MOL      0.084972
     89 H37         4.2980    6.6820    1.2130 hc        1 MOL      0.114571
     90 H38         3.1160    6.8820    2.4960 hc        1 MOL      0.114571
     91 H39         3.7570    7.6940   -0.9570 hn        1 MOL      0.327602
     92 H40         2.6810    9.0940   -0.9970 hn        1 MOL      0.327602
     93 N9          1.1130    2.9700    2.8900 n         1 MOL     -0.480744
     94 C30        -0.1380    2.1840    3.0690 c3        1 MOL      0.079459
     95 C31        -1.1810    2.7390    2.1670 c         1 MOL      0.388680
     96 O16        -1.5640    3.9060    2.2750 o         1 MOL     -0.573120
     97 C32        -0.4770    2.1100    4.5800 c3        1 MOL      0.071322
     98 C33        -1.7080    1.1810    4.7980 c3        1 MOL     -0.203483
     99 C34         0.7250    1.4070    5.3510 c3        1 MOL     -0.203483
    100 H41         1.4880    3.5820    3.6010 hn        1 MOL      0.275926
    101 H42         0.0870    1.1490    2.8370 h1        1 MOL      0.137839
    102 H43        -0.6170    3.1330    4.9030 hc        1 MOL      0.018636
    103 H44        -1.9530    1.2390    5.8570 hc        1 MOL      0.046993
    104 H45        -2.5300    1.4500    4.1280 hc        1 MOL      0.046993
    105 H46        -1.4120    0.1740    4.5000 hc        1 MOL      0.046993
    106 H47         1.5960    2.0640    5.4400 hc        1 MOL      0.046993
    107 H48         0.4920    1.0740    6.3600 hc        1 MOL      0.046993
    108 H49         1.0650    0.4990    4.8420 hc        1 MOL      0.046993
    109 N10        -1.6020    1.8880    1.2250 n         1 MOL     -0.017648
    110 C35        -2.7510    2.2660    0.4040 c3        1 MOL      0.399604
    111 C36        -4.1310    1.8540    1.0380 c         1 MOL      0.049185
    112 O17        -4.2220    1.0510    2.0340 o         1 MOL     -0.397992
    113 C37        -2.4780    1.5950   -0.9620 c3        1 MOL     -0.462989
    114 C38        -3.4780    2.0240   -1.9670 c         1 MOL      0.810843
    115 N11        -3.5870    3.2610   -2.4900 n         1 MOL     -0.835117
    116 O18        -4.3190    1.2150   -2.3040 o         1 MOL     -0.636766
    117 H50        -1.1290    0.9940    1.1380 hn        1 MOL      0.006309
    118 H51        -2.6510    3.3360    0.2250 h1        1 MOL     -0.041105
    119 H52        -2.4900    0.5100   -0.9560 hc        1 MOL      0.140839
    120 H53        -1.5090    1.9790   -1.2840 hc        1 MOL      0.140839
    121 H54        -2.9460    3.9940   -2.2270 hn        1 MOL      0.367728
    122 H55        -4.5050    3.4480   -2.8700 hn        1 MOL      0.367728
    123 N12        -5.2880    2.1410    0.4820 n         1 MOL      0.004559
    124 C39        -6.6110    1.6300    0.8530 c3        1 MOL      0.014038
    125 C40        -6.8400    0.0890    0.4360 c         1 MOL      0.432283
    126 O19        -7.6060   -0.6390    1.0250 o         1 MOL     -0.574072
    127 C41        -7.6930    2.6220    0.3810 c3        1 MOL     -0.208807
    128 C42        -7.5680    3.0230   -1.0560 ca        1 MOL      0.034699
    129 C43        -7.9150    2.0850   -2.0370 ca        1 MOL     -0.096445
    130 C44        -7.0420    4.2390   -1.4580 ca        1 MOL     -0.096445
    131 C45        -7.8070    2.3040   -3.4270 ca        1 MOL     -0.335778
    132 C46        -7.0050    4.5100   -2.8300 ca        1 MOL     -0.335778
    133 C47        -7.2790    3.5240   -3.8060 ca        1 MOL      0.467503
    134 O20        -7.1180    3.8910   -5.0870 oh        1 MOL     -0.603373
    135 H56        -5.2670    2.7040   -0.3480 hn        1 MOL     -0.005923
    136 H57        -6.6270    1.6440    1.9470 h1        1 MOL      0.078899
    137 H58        -7.5910    3.5240    0.9770 hc        1 MOL      0.072627
    138 H59        -8.6780    2.1990    0.5660 hc        1 MOL      0.072627
    139 H60        -8.3180    1.1720   -1.6260 ha        1 MOL      0.116013
    140 H61        -6.7550    4.9730   -0.7080 ha        1 MOL      0.116013
    141 H62        -8.0870    1.5320   -4.1260 ha        1 MOL      0.149632
    142 H63        -6.6090    5.4650   -3.1340 ha        1 MOL      0.149632
    143 H64        -7.3140    3.1520   -5.6720 ho        1 MOL      0.437241
    144 N13        -6.0480   -0.4070   -0.4420 n         1 MOL      0.002583
    145 C48        -6.0070   -1.8540   -0.7070 c3        1 MOL     -0.403119
    146 C49        -5.1780   -2.6110    0.3970 c         1 MOL      0.508590
    147 O21        -5.1600   -3.7870    0.4690 o         1 MOL     -0.542868
    148 C50        -5.5160   -2.0960   -2.1830 c3        1 MOL      0.200769
    149 C51        -6.4740   -1.4240   -3.1760 c3        1 MOL     -0.092451
    150 C52        -7.8120   -2.1960   -3.4310 c         1 MOL      0.742275
    151 O22        -7.8610   -2.8440   -4.5030 o         1 MOL     -0.746106
    152 O23        -8.7100   -2.2020   -2.5520 o         1 MOL     -0.746106
    153 H65        -5.3150    0.0830   -0.9270 hn        1 MOL      0.432398
    154 H66        -6.9890   -2.3050   -0.7100 h1        1 MOL      0.188415
    155 H67        -5.4180   -3.1580   -2.4230 hc        1 MOL     -0.018865
    156 H68        -4.5360   -1.6280   -2.1020 hc        1 MOL     -0.018865
    157 H69        -5.9110   -1.4530   -4.1140 hc        1 MOL     -0.050217
    158 H70        -6.6970   -0.4430   -2.7710 hc        1 MOL     -0.050217
    159 N14        -4.3840   -1.8730    1.1310 n         1 MOL     -0.184167
    160 C53        -3.5120   -2.3200    2.2370 c3        1 MOL     -0.074430
    161 C54        -4.1020   -2.0340    3.6340 c         1 MOL      0.417601
    162 O24        -3.6430   -2.5840    4.6090 o         1 MOL     -0.549820
    163 C55        -2.0880   -1.7050    2.0550 c3        1 MOL      0.018705
    164 C56        -1.4180   -2.2080    0.7260 c3        1 MOL     -0.049187
    165 C57        -0.0470   -1.5790    0.4640 c         1 MOL      0.664781
    166 O25        -0.0280   -0.3220    0.5850 o         1 MOL     -0.721048
    167 O26         0.9770   -2.1140    0.1160 o         1 MOL     -0.721048
    168 H71        -4.4300   -0.8850    0.9590 hn        1 MOL      0.017867
    169 H72        -3.4480   -3.3920    2.1210 h1        1 MOL      0.089716
    170 H73        -1.5680   -2.0520    2.9560 hc        1 MOL      0.075250
    171 H74        -2.1080   -0.6330    2.2130 hc        1 MOL      0.075250
    172 H75        -2.0830   -1.9110   -0.0950 hc        1 MOL      0.003774
    173 H76        -1.3020   -3.2870    0.8050 hc        1 MOL      0.003774
    174 N15        -5.0560   -1.1340    3.9600 n         1 MOL     -0.132686
    175 C58        -5.3920   -0.6300    5.2540 c3        1 MOL     -0.099763
    176 H77        -5.5120    0.4520    5.2020 h1        1 MOL      0.050436
    177 H78        -6.3260   -1.0830    5.5900 h1        1 MOL      0.050436
    178 H79        -4.5960   -0.8740    5.9570 h1        1 MOL      0.050436
    179 H80        -5.5460   -0.7210    3.1730 hn        1 MOL      0.144579
    180 Ca1         2.4120   -0.0700   -0.0490 Ca        1 MOL      1.784242
    181 O27         4.8200    0.7810    1.7270 oh        1 MOL     -0.884952
    182 H81         5.6470    0.3060    1.6190 ho        1 MOL      0.425024
    183 H82         4.5880    0.6670    2.6480 ho        1 MOL      0.425024
    184 O28         0.9040    0.9870   -2.2130 oh        1 MOL     -0.884952
    185 O29         2.3790   -0.1910    2.6590 oh        1 MOL     -0.884952
    186 H83         1.2340    1.8350   -2.4760 ho        1 MOL      0.425024
    187 H84         1.6160   -0.7380    2.8330 ho        1 MOL      0.425024
    188 H85         1.1520    0.3910   -2.9160 ho        1 MOL      0.425024
    189 H86         3.0120   -0.4350    3.3290 ho        1 MOL      0.425024
@<TRIPOS>BOND
     1    1    2 1   
     2    1    4 1   
     3    1    5 1   
     4    1    6 1   
     5    2    3 2   
     6    2    7 1   
     7    7    8 1   
     8    7   15 1   
     9    8    9 1   
    10    8   11 1   
    11    8   16 1   
    12    9   10 2   
    13    9   19 1   
    14   11   12 1   
    15   11   17 1   
    16   11   18 1   
    17   12   13 1   
    18   12   14 1   
    19   19   20 1   
    20   19   27 1   
    21   20   21 1   
    22   20   23 1   
    23   20   28 1   
    24   21   22 2   
    25   21   38 1   
    26   23   24 1   
    27   23   25 1   
    28   23   29 1   
    29   24   26 1   
    30   24   30 1   
    31   24   31 1   
    32   25   32 1   
    33   25   33 1   
    34   25   34 1   
    35   26   35 1   
    36   26   36 1   
    37   26   37 1   
    38   38   39 1   
    39   38   46 1   
    40   39   40 1   
    41   39   42 1   
    42   39   47 1   
    43   40   41 2   
    44   40   50 1   
    45   42   43 1   
    46   42   48 1   
    47   42   49 1   
    48   43   44 1   
    49   43   45 1   
    50   50   51 1   
    51   50   54 1   
    52   51   52 1   
    53   51   55 1   
    54   51   56 1   
    55   52   53 2   
    56   52   57 1   
    57   57   58 1   
    58   57   65 1   
    59   58   59 1   
    60   58   61 1   
    61   58   66 1   
    62   59   60 2   
    63   59   69 1   
    64   61   62 1   
    65   61   67 1   
    66   61   68 1   
    67   62   63 1   
    68   62   64 1   
    69   69   70 1   
    70   69   73 1   
    71   70   71 1   
    72   70   74 1   
    73   70   75 1   
    74   71   72 2   
    75   71   76 1   
    76   76   77 1   
    77   76   85 1   
    78   77   78 1   
    79   77   80 1   
    80   77   86 1   
    81   78   79 2   
    82   78   93 1   
    83   80   81 1   
    84   80   87 1   
    85   80   88 1   
    86   81   82 1   
    87   81   89 1   
    88   81   90 1   
    89   82   83 1   
    90   82   84 2   
    91   83   91 1   
    92   83   92 1   
    93   93   94 1   
    94   93  100 1   
    95   94   95 1   
    96   94   97 1   
    97   94  101 1   
    98   95   96 2   
    99   95  109 1   
   100   97   98 1   
   101   97   99 1   
   102   97  102 1   
   103   98  103 1   
   104   98  104 1   
   105   98  105 1   
   106   99  106 1   
   107   99  107 1   
   108   99  108 1   
   109  109  110 1   
   110  109  117 1   
   111  110  111 1   
   112  110  113 1   
   113  110  118 1   
   114  111  112 2   
   115  111  123 1   
   116  113  114 1   
   117  113  119 1   
   118  113  120 1   
   119  114  115 1   
   120  114  116 2   
   121  115  121 1   
   122  115  122 1   
   123  123  124 1   
   124  123  135 1   
   125  124  125 1   
   126  124  127 1   
   127  124  136 1   
   128  125  126 2   
   129  125  144 1   
   130  127  128 1   
   131  127  137 1   
   132  127  138 1   
   133  128  129 ar  
   134  128  130 ar  
   135  129  131 ar  
   136  129  139 1   
   137  130  132 ar  
   138  130  140 1   
   139  131  133 ar  
   140  131  141 1   
   141  132  133 ar  
   142  132  142 1   
   143  133  134 1   
   144  134  143 1   
   145  144  145 1   
   146  144  153 1   
   147  145  146 1   
   148  145  148 1   
   149  145  154 1   
   150  146  147 2   
   151  146  159 1   
   152  148  149 1   
   153  148  155 1   
   154  148  156 1   
   155  149  150 1   
   156  149  157 1   
   157  149  158 1   
   158  150  151 1   
   159  150  152 1   
   160  159  160 1   
   161  159  168 1   
   162  160  161 1   
   163  160  163 1   
   164  160  169 1   
   165  161  162 2   
   166  161  174 1   
   167  163  164 1   
   168  163  170 1   
   169  163  171 1   
   170  164  165 1   
   171  164  172 1   
   172  164  173 1   
   173  165  166 1   
   174  165  167 1   
   175  174  175 1   
   176  174  179 1   
   177  175  176 1   
   178  175  177 1   
   179  175  178 1   
   180  181  182 1   
   181  181  183 1   
   182  184  186 1   
   183  184  188 1   
   184  185  187 1   
   185  185  189 1   
@<TRIPOS>SUBSTRUCTURE
     1 MOL         1 TEMP              0 ****  ****    0 ROOT
