@<TRIPOS>MOLECULE
MOL
  189   185     1     0     0
SMALL
resp


@<TRIPOS>ATOM
      1 C1          0.5960    1.8430    5.9110 c3        1 MOL     -0.281045
      2 C2          0.0030    1.9050    4.4810 c         1 MOL      0.765240
      3 O1          0.5540    2.4770    3.5940 o         1 MOL     -0.638002
      4 H1          0.8260    2.8520    6.2520 hc        1 MOL      0.068336
      5 H2         -0.1280    1.3880    6.5870 hc        1 MOL      0.068336
      6 H3          1.5090    1.2470    5.9010 hc        1 MOL      0.068336
      7 N1         -1.2310    1.4000    4.2920 n         1 MOL     -0.671725
      8 C3         -1.9970    1.5150    3.0590 c3        1 MOL      0.254392
      9 C4         -2.3440    2.9380    2.6420 c         1 MOL      0.632839
     10 O2         -3.0260    3.7050    3.3780 o         1 MOL     -0.595163
     11 C5         -3.2870    0.6370    3.1240 c3        1 MOL     -0.409421
     12 C6         -3.9160    0.2460    1.7700 c         1 MOL      0.775096
     13 O3         -3.3890    0.6700    0.7180 o         1 MOL     -0.651287
     14 O4         -4.9360   -0.4800    1.7140 o         1 MOL     -0.651287
     15 H4         -1.6470    0.8030    5.0020 hn        1 MOL      0.348868
     16 H5         -1.4520    1.1100    2.2000 h1        1 MOL     -0.030763
     17 H6         -4.0750    1.1290    3.7020 hc        1 MOL      0.089058
     18 H7         -2.9590   -0.2370    3.6930 hc        1 MOL      0.089058
     19 N2         -1.6670    3.3900    1.5580 n         1 MOL     -0.259969
     20 C7         -1.7170    4.8220    1.1890 c3        1 MOL     -0.024859
     21 C8         -2.7580    5.2000    0.0580 c         1 MOL      0.406143
     22 O5         -3.3870    6.2470    0.1560 o         1 MOL     -0.552368
     23 C9         -0.3340    5.4600    0.9820 c3        1 MOL     -0.077454
     24 C10        -0.3970    6.9810    0.7700 c3        1 MOL     -0.192379
     25 C11         1.0500    7.5600    0.7000 c3        1 MOL     -0.054429
     26 C12         1.8150    7.1980   -0.5580 c3        1 MOL      0.081756
     27 N3          3.1810    7.5260   -0.3550 n4        1 MOL     -0.284791
     28 H8         -1.1900    2.7740    0.9250 hn        1 MOL      0.165530
     29 H9         -2.0820    5.3160    2.1000 h1        1 MOL      0.103308
     30 H10         0.1430    5.1010    0.0660 hc        1 MOL      0.077326
     31 H11         0.1960    5.2070    1.9030 hc        1 MOL      0.077326
     32 H12        -0.8230    7.3240    1.7150 hc        1 MOL      0.106050
     33 H13        -1.0420    7.2310   -0.0720 hc        1 MOL      0.106050
     34 H14         1.5890    7.0720    1.5150 hc        1 MOL      0.036140
     35 H15         1.0450    8.6490    0.7800 hc        1 MOL      0.036140
     36 H16         1.3640    7.7430   -1.3850 hx        1 MOL      0.059212
     37 H17         1.7110    6.1210   -0.7430 hx        1 MOL      0.059212
     38 H18         3.6050    7.0950    0.4460 hn        1 MOL      0.301337
     39 H19         3.7500    7.3850   -1.1760 hn        1 MOL      0.301337
     40 H20         3.1510    8.4840   -0.0320 hn        1 MOL      0.301337
     41 N4         -2.9920    4.3320   -0.9020 n         1 MOL     -0.186431
     42 C13        -4.1310    4.3260   -1.8210 c3        1 MOL      0.054757
     43 C14        -5.4060    3.6250   -1.3850 c         1 MOL      0.398721
     44 O6         -6.5120    4.0490   -1.8390 o         1 MOL     -0.563490
     45 C15        -3.6860    3.9720   -3.2800 c3        1 MOL     -0.429188
     46 C16        -2.9730    2.6140   -3.3170 c         1 MOL      0.853461
     47 O7         -3.1290    1.7390   -2.4260 o         1 MOL     -0.720825
     48 O8         -2.3000    2.3420   -4.3320 o         1 MOL     -0.720825
     49 H21        -2.3120    3.6100   -1.1220 hn        1 MOL      0.149096
     50 H22        -4.3930    5.3810   -1.9130 h1        1 MOL      0.087859
     51 H23        -3.0030    4.7450   -3.6150 hc        1 MOL      0.117624
     52 H24        -4.5740    4.0090   -3.9080 hc        1 MOL      0.117624
     53 N5         -5.3710    2.7200   -0.4350 n         1 MOL      0.050675
     54 C17        -6.5310    2.3030    0.3810 c3        1 MOL     -0.196452
     55 C18        -7.3360    1.2000   -0.3100 c         1 MOL      0.594611
     56 O9         -8.5330    1.1580   -0.2790 o         1 MOL     -0.573566
     57 H25        -4.4490    2.4570   -0.1090 hn        1 MOL      0.005192
     58 H26        -7.1230    3.1680    0.6620 h1        1 MOL      0.095540
     59 H27        -6.1170    1.7420    1.2140 h1        1 MOL      0.095540
     60 N6         -6.6330    0.3080   -0.9750 n         1 MOL     -0.217744
     61 C19        -7.1910   -0.7410   -1.8120 c3        1 MOL      0.025433
     62 C20        -7.5460   -2.0150   -1.0560 c         1 MOL      0.396763
     63 O10        -8.3660   -2.8350   -1.4470 o         1 MOL     -0.525969
     64 C21        -6.2410   -1.0420   -2.9640 c3        1 MOL     -0.444156
     65 C22        -4.8210   -1.2570   -2.6550 c         1 MOL      0.784786
     66 O11        -4.4230   -1.7860   -1.6070 o         1 MOL     -0.650191
     67 O12        -4.0150   -0.8650   -3.5220 o         1 MOL     -0.650191
     68 H28        -5.6300    0.3260   -0.8380 hn        1 MOL      0.070812
     69 H29        -8.1560   -0.3780   -2.1920 h1        1 MOL      0.109138
     70 H30        -6.2900   -0.1660   -3.6070 hc        1 MOL      0.143125
     71 H31        -6.6680   -1.9390   -3.4110 hc        1 MOL      0.143125
     72 N7         -6.9020   -2.1560    0.0850 n         1 MOL     -0.072681
     73 C23        -7.0070   -3.3450    0.9640 c3        1 MOL     -0.374030
     74 C24        -5.7570   -4.1920    1.0650 c         1 MOL      0.739020
     75 O13        -5.8280   -5.1050    1.8700 o         1 MOL     -0.622764
     76 H32        -6.2390   -1.4800    0.4240 hn        1 MOL      0.158936
     77 H33        -7.7400   -4.0390    0.5580 h1        1 MOL      0.149357
     78 H34        -7.1320   -2.9610    1.9760 h1        1 MOL      0.149357
     79 N8         -4.6220   -3.8270    0.4540 n         1 MOL     -0.412127
     80 C25        -3.3810   -4.5630    0.4130 c3        1 MOL     -0.058226
     81 C26        -2.1750   -3.6340    0.6260 c         1 MOL      0.748284
     82 O14        -2.2780   -2.3960    0.4300 o         1 MOL     -0.730034
     83 C27        -3.2030   -5.3260   -0.8930 c3        1 MOL      0.463475
     84 C28        -3.8230   -6.6890   -1.0220 c3        1 MOL     -0.416335
     85 O15        -3.5550   -4.5450   -2.1190 oh        1 MOL     -0.619294
     86 H35        -4.6670   -2.9080    0.0450 hn        1 MOL      0.209439
     87 H36        -3.2910   -5.2330    1.2620 h1        1 MOL      0.061806
     88 H37        -2.1240   -5.5060   -0.9160 h1        1 MOL     -0.062709
     89 H38        -3.4180   -3.6200   -1.8850 ho        1 MOL      0.410567
     90 H39        -4.8650   -6.5390   -0.7330 hc        1 MOL      0.108380
     91 H40        -3.7070   -6.9440   -2.0770 hc        1 MOL      0.108380
     92 H41        -3.3860   -7.4100   -0.3380 hc        1 MOL      0.108380
     93 N9         -0.9980   -4.1170    0.8760 n         1 MOL     -0.614179
     94 C29         0.2640   -3.3740    1.1340 c3        1 MOL      0.253708
     95 C30         1.3310   -3.9670    0.2750 c         1 MOL      0.414139
     96 O16         1.5780   -5.1830    0.4030 o         1 MOL     -0.543495
     97 C31         0.4770   -3.3890    2.6780 c3        1 MOL      0.123233
     98 C32        -0.4870   -2.3590    3.3400 c3        1 MOL     -0.085982
     99 C33         1.9690   -3.0240    2.9150 c3        1 MOL     -0.197539
    100 C34        -0.5600   -2.4910    4.8740 c3        1 MOL     -0.321031
    101 H42        -0.8820   -5.0470    1.2440 hn        1 MOL      0.276443
    102 H43         0.1620   -2.3120    0.8950 h1        1 MOL     -0.043221
    103 H44         0.2080   -4.3670    3.0860 hc        1 MOL      0.013241
    104 H45        -1.5040   -2.4270    2.9770 hc        1 MOL      0.095561
    105 H46        -0.1390   -1.3590    3.0710 hc        1 MOL      0.095561
    106 H47         2.0510   -2.0720    2.3940 hc        1 MOL      0.031827
    107 H48         2.2640   -2.7890    3.9350 hc        1 MOL      0.031827
    108 H49         2.6550   -3.7870    2.5470 hc        1 MOL      0.031827
    109 H50         0.3440   -2.6120    5.4700 hc        1 MOL      0.077903
    110 H51        -1.1710   -1.6400    5.1950 hc        1 MOL      0.077903
    111 H52        -1.1090   -3.3830    5.1650 hc        1 MOL      0.077903
    112 N10         2.1430   -3.1000   -0.3330 n         1 MOL     -0.055826
    113 C35         3.4180   -3.4590   -0.9620 c3        1 MOL     -0.022982
    114 C36         4.6470   -3.4050   -0.0850 c         1 MOL      0.462751
    115 O17         4.6390   -2.8720    1.0470 o         1 MOL     -0.423004
    116 C37         3.6120   -2.5740   -2.2350 c3        1 MOL      0.066049
    117 C38         2.3060   -2.4350   -3.0770 c3        1 MOL     -0.248055
    118 O18         3.9040   -1.2750   -1.8390 oh        1 MOL     -0.432908
    119 H53         1.9350   -2.1080   -0.3370 hn        1 MOL      0.052279
    120 H54         3.3250   -4.4890   -1.3110 h1        1 MOL      0.057597
    121 H55         4.4420   -2.9740   -2.8220 h1        1 MOL      0.054092
    122 H56         3.5070   -0.7510   -2.5430 ho        1 MOL      0.391992
    123 H57         1.6390   -1.7680   -2.5300 hc        1 MOL      0.073797
    124 H58         2.6020   -2.0250   -4.0390 hc        1 MOL      0.073797
    125 H59         1.7930   -3.3800   -3.2600 hc        1 MOL      0.073797
    126 N11         5.7840   -3.7660   -0.6590 n         1 MOL     -0.396581
    127 C39         7.1980   -3.4060   -0.1980 c3        1 MOL     -0.059713
    128 C40         7.3530   -1.9340    0.0460 c         1 MOL      0.314027
    129 O19         7.9680   -1.5540    1.0630 o         1 MOL     -0.484001
    130 C41         8.3160   -3.8030   -1.2660 c3        1 MOL      0.255493
    131 C42         8.5070   -5.2390   -1.6010 c3        1 MOL     -0.328680
    132 O20         8.0660   -3.1060   -2.4560 oh        1 MOL     -0.606551
    133 H60         5.6990   -4.1520   -1.5840 hn        1 MOL      0.292670
    134 H61         7.4230   -3.9670    0.7110 h1        1 MOL      0.145250
    135 H62         9.2740   -3.4030   -0.9680 h1        1 MOL      0.059609
    136 H63         8.8970   -3.1340   -2.9250 ho        1 MOL      0.400427
    137 H64         8.6250   -5.7400   -0.6350 hc        1 MOL      0.098488
    138 H65         7.6820   -5.6590   -2.1700 hc        1 MOL      0.098488
    139 H66         9.4850   -5.3940   -2.0600 hc        1 MOL      0.098488
    140 N12         6.8170   -1.0670   -0.8340 n         1 MOL     -0.080035
    141 C43         6.9430    0.4250   -0.7130 c3        1 MOL     -0.209938
    142 C44         6.0150    1.0290    0.3650 c         1 MOL      0.476210
    143 O21         6.5160    1.8890    1.0740 o         1 MOL     -0.527549
    144 C45         6.6750    0.9940   -2.1030 c3        1 MOL      0.008295
    145 C46         7.0440    2.4710   -2.3220 c3        1 MOL      0.158131
    146 C47         8.5300    2.7050   -2.5760 c3        1 MOL     -0.061716
    147 C48         8.6700    4.1270   -3.0510 c3        1 MOL      0.096685
    148 N13        10.0760    4.6030   -3.0980 n4        1 MOL     -0.159708
    149 H67         6.6700   -1.4790   -1.7410 hn        1 MOL      0.166920
    150 H68         7.9780    0.7260   -0.5380 h1        1 MOL      0.112148
    151 H69         5.6260    0.7450   -2.2960 hc        1 MOL     -0.015960
    152 H70         7.3040    0.3830   -2.7500 hc        1 MOL     -0.015960
    153 H71         6.6090    3.0590   -1.5130 hc        1 MOL     -0.028985
    154 H72         6.5730    2.7310   -3.2720 hc        1 MOL     -0.028985
    155 H73         8.7810    2.0640   -3.4230 hc        1 MOL      0.044856
    156 H74         9.0100    2.4970   -1.6200 hc        1 MOL      0.044856
    157 H75         8.0460    4.7590   -2.4170 hx        1 MOL      0.041603
    158 H76         8.3890    4.2650   -4.0940 hx        1 MOL      0.041603
    159 H77        10.1160    5.5240   -3.4970 hn        1 MOL      0.219129
    160 H78        10.5980    4.6340   -2.2400 hn        1 MOL      0.219129
    161 H79        10.5930    3.9530   -3.6800 hn        1 MOL      0.219129
    162 N14         4.8430    0.5010    0.5320 n         1 MOL     -0.120277
    163 C49         3.9110    0.9880    1.5410 c3        1 MOL     -0.394654
    164 C50         4.3930    0.5710    2.9180 c         1 MOL      0.445751
    165 O22         4.0760    1.2370    3.9550 o         1 MOL     -0.529825
    166 C51         2.4950    0.4990    1.2650 c3        1 MOL      0.501330
    167 C52         1.8650    1.2790    0.1130 c3        1 MOL     -0.000715
    168 C53         0.4790    0.6510   -0.1400 c         1 MOL      0.448988
    169 O23        -0.5530    1.3210   -0.1600 o         1 MOL     -0.575574
    170 O24         0.4010   -0.5450   -0.4240 o         1 MOL     -0.575574
    171 H80         4.6070   -0.2930   -0.0540 hn        1 MOL      0.159181
    172 H81         3.8630    2.0700    1.5200 h1        1 MOL      0.157340
    173 H82         1.8300    0.5290    2.1280 hc        1 MOL     -0.058755
    174 H83         2.6230   -0.5020    0.8520 hc        1 MOL     -0.058755
    175 H84         2.5260    1.2620   -0.7550 hc        1 MOL     -0.060858
    176 H85         1.7650    2.3160    0.4070 hc        1 MOL     -0.060858
    177 N15         5.1630   -0.5460    3.1130 n         1 MOL     -0.091910
    178 C54         5.8920   -0.7920    4.4220 c3        1 MOL     -0.376848
    179 H86         6.2490    0.1580    4.8220 h1        1 MOL      0.143513
    180 H87         5.2110   -1.2530    5.1380 h1        1 MOL      0.143513
    181 H88         6.7400   -1.4540    4.2480 h1        1 MOL      0.143513
    182 H89         5.2850   -1.1500    2.3170 hn        1 MOL      0.177774
    183 Ca1        -2.1430   -0.4720   -1.2740 Ca        1 MOL      1.756613
    184 O25        -1.4610   -2.6080   -2.7670 oh        1 MOL     -0.895454
    185 H90        -1.3530   -3.5420   -2.9870 ho        1 MOL      0.406715
    186 H91        -0.9300   -2.1480   -3.4240 ho        1 MOL      0.406715
    187 O26        -0.8810    0.3370   -3.5370 oh        1 MOL     -0.895454
    188 H92        -1.2350    1.1590   -3.8790 ho        1 MOL      0.406715
    189 H93        -0.8340   -0.2420   -4.2960 ho        1 MOL      0.406715
@<TRIPOS>BOND
     1    1    2 1   
     2    1    4 1   
     3    1    5 1   
     4    1    6 1   
     5    2    3 2   
     6    2    7 1   
     7    7    8 1   
     8    7   15 1   
     9    8    9 1   
    10    8   11 1   
    11    8   16 1   
    12    9   10 2   
    13    9   19 1   
    14   11   12 1   
    15   11   17 1   
    16   11   18 1   
    17   12   13 1   
    18   12   14 1   
    19   19   20 1   
    20   19   28 1   
    21   20   21 1   
    22   20   23 1   
    23   20   29 1   
    24   21   22 2   
    25   21   41 1   
    26   23   24 1   
    27   23   30 1   
    28   23   31 1   
    29   24   25 1   
    30   24   32 1   
    31   24   33 1   
    32   25   26 1   
    33   25   34 1   
    34   25   35 1   
    35   26   27 1   
    36   26   36 1   
    37   26   37 1   
    38   27   38 1   
    39   27   39 1   
    40   27   40 1   
    41   41   42 1   
    42   41   49 1   
    43   42   43 1   
    44   42   45 1   
    45   42   50 1   
    46   43   44 2   
    47   43   53 1   
    48   45   46 1   
    49   45   51 1   
    50   45   52 1   
    51   46   47 1   
    52   46   48 1   
    53   53   54 1   
    54   53   57 1   
    55   54   55 1   
    56   54   58 1   
    57   54   59 1   
    58   55   56 2   
    59   55   60 1   
    60   60   61 1   
    61   60   68 1   
    62   61   62 1   
    63   61   64 1   
    64   61   69 1   
    65   62   63 2   
    66   62   72 1   
    67   64   65 1   
    68   64   70 1   
    69   64   71 1   
    70   65   66 1   
    71   65   67 1   
    72   72   73 1   
    73   72   76 1   
    74   73   74 1   
    75   73   77 1   
    76   73   78 1   
    77   74   75 2   
    78   74   79 1   
    79   79   80 1   
    80   79   86 1   
    81   80   81 1   
    82   80   83 1   
    83   80   87 1   
    84   81   82 2   
    85   81   93 1   
    86   83   84 1   
    87   83   85 1   
    88   83   88 1   
    89   84   90 1   
    90   84   91 1   
    91   84   92 1   
    92   85   89 1   
    93   93   94 1   
    94   93  101 1   
    95   94   95 1   
    96   94   97 1   
    97   94  102 1   
    98   95   96 2   
    99   95  112 1   
   100   97   98 1   
   101   97   99 1   
   102   97  103 1   
   103   98  100 1   
   104   98  104 1   
   105   98  105 1   
   106   99  106 1   
   107   99  107 1   
   108   99  108 1   
   109  100  109 1   
   110  100  110 1   
   111  100  111 1   
   112  112  113 1   
   113  112  119 1   
   114  113  114 1   
   115  113  116 1   
   116  113  120 1   
   117  114  115 2   
   118  114  126 1   
   119  116  117 1   
   120  116  118 1   
   121  116  121 1   
   122  117  123 1   
   123  117  124 1   
   124  117  125 1   
   125  118  122 1   
   126  126  127 1   
   127  126  133 1   
   128  127  128 1   
   129  127  130 1   
   130  127  134 1   
   131  128  129 2   
   132  128  140 1   
   133  130  131 1   
   134  130  132 1   
   135  130  135 1   
   136  131  137 1   
   137  131  138 1   
   138  131  139 1   
   139  132  136 1   
   140  140  141 1   
   141  140  149 1   
   142  141  142 1   
   143  141  144 1   
   144  141  150 1   
   145  142  143 2   
   146  142  162 1   
   147  144  145 1   
   148  144  151 1   
   149  144  152 1   
   150  145  146 1   
   151  145  153 1   
   152  145  154 1   
   153  146  147 1   
   154  146  155 1   
   155  146  156 1   
   156  147  148 1   
   157  147  157 1   
   158  147  158 1   
   159  148  159 1   
   160  148  160 1   
   161  148  161 1   
   162  162  163 1   
   163  162  171 1   
   164  163  164 1   
   165  163  166 1   
   166  163  172 1   
   167  164  165 2   
   168  164  177 1   
   169  166  167 1   
   170  166  173 1   
   171  166  174 1   
   172  167  168 1   
   173  167  175 1   
   174  167  176 1   
   175  168  169 1   
   176  168  170 1   
   177  177  178 1   
   178  177  182 1   
   179  178  179 1   
   180  178  180 1   
   181  178  181 1   
   182  184  185 1   
   183  184  186 1   
   184  187  188 1   
   185  187  189 1   
@<TRIPOS>SUBSTRUCTURE
     1 MOL         1 TEMP              0 ****  ****    0 ROOT
