@<TRIPOS>MOLECULE
MOL
  186   183     1     0     0
SMALL
resp


@<TRIPOS>ATOM
      1 C1          0.9760   -1.5150    6.3480 c3        1 MOL     -0.360397
      2 C2          1.1860   -1.9140    4.8550 c         1 MOL      0.673108
      3 O1          0.2620   -2.3780    4.2560 o         1 MOL     -0.520026
      4 H1          0.0050   -1.0350    6.4630 hc        1 MOL      0.079809
      5 H2          1.0160   -2.4070    6.9730 hc        1 MOL      0.079809
      6 H3          1.7620   -0.8220    6.6530 hc        1 MOL      0.079809
      7 N1          2.2990   -1.6030    4.3430 n         1 MOL     -0.507490
      8 C3          2.6970   -1.6540    3.0050 c3        1 MOL      0.278142
      9 C4          3.1220   -3.0530    2.4920 c         1 MOL      0.342124
     10 O2          4.0270   -3.7270    3.0020 o         1 MOL     -0.575900
     11 C5          3.8280   -0.7030    2.7900 c3        1 MOL     -0.300870
     12 C6          4.4770   -0.7220    1.4070 c         1 MOL      0.926434
     13 O3          5.6450   -0.3950    1.3380 o         1 MOL     -0.717659
     14 O4          3.8110   -0.9630    0.4320 o         1 MOL     -0.717659
     15 H4          2.9400   -1.2280    5.0320 hn        1 MOL      0.291914
     16 H5          1.8790   -1.3490    2.3530 h1        1 MOL     -0.000724
     17 H6          4.6230   -0.9350    3.5050 hc        1 MOL      0.032204
     18 H7          3.4270    0.2790    3.0690 hc        1 MOL      0.032204
     19 N2          2.4520   -3.5190    1.4840 n         1 MOL      0.071230
     20 C7          2.4160   -4.9610    1.0380 c3        1 MOL     -0.211551
     21 C8          3.3510   -5.2140   -0.1910 c         1 MOL      0.429297
     22 O5          4.0290   -6.2350   -0.2340 o         1 MOL     -0.561611
     23 C9          1.0250   -5.5030    0.8980 c3        1 MOL      0.224488
     24 C10         0.0690   -5.2640    2.1140 c3        1 MOL      0.141787
     25 C11         0.8720   -6.8970    0.2010 c3        1 MOL     -0.217818
     26 C12         0.6710   -5.9580    3.3640 c3        1 MOL     -0.291362
     27 H8          1.7160   -2.8770    1.2200 hn        1 MOL      0.062517
     28 H9          2.7880   -5.4870    1.9240 h1        1 MOL      0.096733
     29 H10         0.4950   -4.8700    0.1870 hc        1 MOL     -0.042986
     30 H11        -0.8320   -5.8290    1.9040 hc        1 MOL     -0.010079
     31 H12        -0.1450   -4.2170    2.3110 hc        1 MOL     -0.010079
     32 H13         1.1940   -7.7690    0.7640 hc        1 MOL      0.045846
     33 H14        -0.1950   -7.1240    0.1070 hc        1 MOL      0.045846
     34 H15         1.3850   -6.8390   -0.7610 hc        1 MOL      0.045846
     35 H16        -0.1090   -5.9250    4.1250 hc        1 MOL      0.048425
     36 H17         0.8530   -6.9520    2.9730 hc        1 MOL      0.048425
     37 H18         1.5590   -5.4690    3.7720 hc        1 MOL      0.048425
     38 N3          3.5360   -4.2210   -1.0390 n         1 MOL     -0.045939
     39 C13         4.5550   -4.2800   -2.1200 c3        1 MOL     -0.093264
     40 C14         5.8840   -3.5550   -1.9980 c         1 MOL      0.425144
     41 O6          6.8680   -3.7600   -2.7640 o         1 MOL     -0.559070
     42 C15         3.9750   -3.8860   -3.5400 c3        1 MOL     -0.213501
     43 C16         3.2200   -2.5720   -3.5710 c         1 MOL      0.730555
     44 O7          3.3810   -1.8040   -2.5210 o         1 MOL     -0.688621
     45 O8          2.4170   -2.3380   -4.5240 o         1 MOL     -0.688621
     46 H19         3.0450   -3.3510   -0.8920 hn        1 MOL      0.088268
     47 H20         4.7070   -5.3510   -2.2130 h1        1 MOL      0.098923
     48 H21         3.2270   -4.6140   -3.8340 hc        1 MOL      0.062377
     49 H22         4.8540   -3.7860   -4.1740 hc        1 MOL      0.062377
     50 N4          5.9830   -2.8310   -0.9570 n         1 MOL     -0.107592
     51 C17         7.2240   -2.3110   -0.3940 c3        1 MOL     -0.195526
     52 C18         7.7580   -1.0180   -1.0460 c         1 MOL      0.524817
     53 O9          8.9220   -0.8600   -1.2790 o         1 MOL     -0.573666
     54 H23         5.1030   -2.6150   -0.5050 hn        1 MOL      0.139874
     55 H24         8.0690   -2.9920   -0.4310 h1        1 MOL      0.098955
     56 H25         7.0480   -2.1420    0.6790 h1        1 MOL      0.098955
     57 N5          6.8310   -0.0970   -1.3610 n         1 MOL     -0.096119
     58 C19         7.2080    1.2460   -1.7820 c3        1 MOL     -0.075088
     59 C20         7.4520    2.2840   -0.6740 c         1 MOL      0.561011
     60 O10         8.1300    3.3050   -0.9480 o         1 MOL     -0.561668
     61 C21         6.2660    1.6990   -2.8900 c3        1 MOL      0.079847
     62 C22         4.8440    2.0240   -2.3600 c         1 MOL      0.424603
     63 O11         4.2800    1.4250   -1.4210 o         1 MOL     -0.621016
     64 O12         4.3690    3.0570   -2.8380 o         1 MOL     -0.621016
     65 H26         5.8870   -0.1940   -1.0100 hn        1 MOL     -0.039915
     66 H27         8.1920    1.1980   -2.2360 h1        1 MOL      0.060953
     67 H28         6.2600    0.9770   -3.7070 hc        1 MOL      0.003731
     68 H29         6.6140    2.6530   -3.3010 hc        1 MOL      0.003731
     69 N6          7.0480    1.9620    0.5920 n         1 MOL     -0.371848
     70 C23         6.9790    2.8990    1.7170 c3        1 MOL     -0.067902
     71 C24         5.7330    3.8190    1.6650 c         1 MOL      0.494573
     72 O13         5.6150    4.8510    2.3890 o         1 MOL     -0.596021
     73 H30         6.6210    1.0750    0.8230 hn        1 MOL      0.294273
     74 H31         7.8300    3.5840    1.7960 h1        1 MOL      0.072190
     75 H32         6.8850    2.2730    2.6020 h1        1 MOL      0.072190
     76 N7          4.6320    3.5070    0.9180 n         1 MOL     -0.170208
     77 C25         3.2640    4.1060    1.1380 c3        1 MOL     -0.258243
     78 C26         2.0540    3.1120    1.2220 c         1 MOL      0.759678
     79 O14         2.2240    1.9800    0.8570 o         1 MOL     -0.650282
     80 C27         3.0010    5.2340    0.0560 c3        1 MOL      0.072503
     81 C28         3.9360    6.4670    0.1900 c3        1 MOL     -0.273828
     82 C29         3.4040    7.6080   -0.7200 c         1 MOL      0.629839
     83 N8          3.7110    7.5610   -2.0420 n         1 MOL     -0.828041
     84 O15         2.7230    8.5100   -0.2160 o         1 MOL     -0.569325
     85 H33         4.7270    2.6560    0.3850 hn        1 MOL      0.212208
     86 H34         3.2460    4.6110    2.1060 h1        1 MOL      0.121270
     87 H35         1.9730    5.6170    0.1400 hc        1 MOL      0.046467
     88 H36         3.0150    4.8860   -0.9770 hc        1 MOL      0.046467
     89 H37         4.9580    6.1490   -0.0240 hc        1 MOL      0.097769
     90 H38         3.8010    6.8670    1.1900 hc        1 MOL      0.097769
     91 H39         4.2880    6.7780   -2.3460 hn        1 MOL      0.377503
     92 H40         3.1780    8.1640   -2.6450 hn        1 MOL      0.377503
     93 N9          0.8830    3.5410    1.8260 n         1 MOL     -0.669655
     94 C30        -0.3320    2.7070    1.9200 c3        1 MOL      0.335990
     95 C31        -1.3870    3.2250    1.0910 c         1 MOL      0.346610
     96 O16        -1.7620    4.3890    1.2950 o         1 MOL     -0.572965
     97 C32        -0.7710    2.5060    3.3950 c3        1 MOL      0.309814
     98 C33        -1.3540    1.1550    3.5640 c3        1 MOL     -0.431773
     99 C34         0.2260    2.7050    4.5590 c3        1 MOL     -0.431773
    100 H41         0.9620    4.4480    2.2620 hn        1 MOL      0.305911
    101 H42        -0.0230    1.7130    1.5870 h1        1 MOL      0.030222
    102 H43        -1.5310    3.2480    3.6220 hc        1 MOL     -0.049145
    103 H44        -2.1430    1.1180    2.8180 hc        1 MOL      0.097644
    104 H45        -0.6290    0.3560    3.3740 hc        1 MOL      0.097644
    105 H46        -1.7980    1.0200    4.5440 hc        1 MOL      0.097644
    106 H47         0.6200    3.7170    4.5160 hc        1 MOL      0.097644
    107 H48        -0.1710    2.5160    5.5500 hc        1 MOL      0.097644
    108 H49         1.1030    2.0830    4.3720 hc        1 MOL      0.097644
    109 N10        -1.8610    2.3720    0.2040 n         1 MOL     -0.034698
    110 C35        -2.9090    2.5560   -0.7250 c3        1 MOL     -0.031848
    111 C36        -4.2430    1.9660   -0.2290 c         1 MOL      0.494726
    112 O17        -4.3470    1.2030    0.7640 o         1 MOL     -0.420501
    113 C37        -2.4320    1.8740   -2.0030 c3        1 MOL     -0.103088
    114 C38        -3.4310    1.9350   -3.1450 c         1 MOL      0.581612
    115 N11        -3.4010    2.9760   -3.9100 n         1 MOL     -0.723025
    116 O18        -4.1760    0.9970   -3.2760 o         1 MOL     -0.478689
    117 H50        -1.4520    1.4510    0.1590 hn        1 MOL      0.029413
    118 H51        -3.0390    3.5870   -1.0330 h1        1 MOL      0.036151
    119 H52        -2.2730    0.8450   -1.6510 hc        1 MOL      0.104341
    120 H53        -1.4820    2.2970   -2.3090 hc        1 MOL      0.104341
    121 H54        -2.6720    3.6740   -3.9530 hn        1 MOL      0.337891
    122 H55        -4.2100    3.1620   -4.4700 hn        1 MOL      0.337891
    123 N12        -5.3670    2.3140   -0.8560 n         1 MOL     -0.612581
    124 C39        -6.6990    1.9070   -0.3870 c3        1 MOL      0.493940
    125 C40        -6.8100    0.3980   -0.2290 c         1 MOL      0.445155
    126 O19        -7.2320   -0.1100    0.8270 o         1 MOL     -0.481012
    127 C41        -7.8690    2.4410   -1.0570 c3        1 MOL     -0.117399
    128 C42        -9.2170    2.1390   -0.4340 ca        1 MOL     -0.156266
    129 C43        -9.4810    2.3870    0.9410 ca        1 MOL     -0.002615
    130 C44       -10.1290    1.3240   -1.0810 ca        1 MOL     -0.002615
    131 C45       -10.6680    2.0580    1.5400 ca        1 MOL     -0.372567
    132 C46       -11.3690    0.9740   -0.5270 ca        1 MOL     -0.372567
    133 C47       -11.6690    1.3340    0.8500 ca        1 MOL      0.427042
    134 O20       -12.7830    0.8610    1.4380 oh        1 MOL     -0.517724
    135 H56        -5.3390    2.9520   -1.6390 hn        1 MOL      0.265649
    136 H57        -6.7260    2.2840    0.6370 h1        1 MOL     -0.027377
    137 H58        -7.7850    2.1210   -2.0910 hc        1 MOL      0.036568
    138 H59        -7.7070    3.5210   -1.0370 hc        1 MOL      0.036568
    139 H60        -8.7580    2.8700    1.5770 ha        1 MOL      0.107697
    140 H61        -9.9660    1.0250   -2.1080 ha        1 MOL      0.107697
    141 H62       -10.8430    2.2820    2.5880 ha        1 MOL      0.159627
    142 H63       -12.1080    0.3720   -1.0330 ha        1 MOL      0.159627
    143 H64       -13.3250    0.2890    0.8820 ho        1 MOL      0.377105
    144 N13        -6.2150   -0.3090   -1.2360 n         1 MOL     -0.355324
    145 C48        -6.2410   -1.8190   -1.3240 c3        1 MOL     -0.078283
    146 C49        -5.5020   -2.4920   -0.2000 c         1 MOL      0.274331
    147 O21        -5.8010   -3.6650    0.1530 o         1 MOL     -0.504380
    148 C50        -5.6580   -2.3020   -2.6380 c3        1 MOL     -0.042388
    149 C51        -6.4190   -1.7450   -3.8610 c3        1 MOL     -0.063497
    150 C52        -6.1990   -2.5800   -5.0810 c         1 MOL      0.666763
    151 O22        -7.1630   -2.9850   -5.7670 o         1 MOL     -0.734932
    152 O23        -4.9880   -2.7330   -5.3640 o         1 MOL     -0.734932
    153 H65        -6.0300    0.2840   -2.0200 hn        1 MOL      0.217430
    154 H66        -7.2970   -2.0530   -1.2220 h1        1 MOL      0.116260
    155 H67        -5.5340   -3.3770   -2.6700 hc        1 MOL      0.079248
    156 H68        -4.6690   -1.8430   -2.7180 hc        1 MOL      0.079248
    157 H69        -6.1650   -0.7110   -4.0950 hc        1 MOL     -0.029799
    158 H70        -7.4550   -1.7190   -3.5250 hc        1 MOL     -0.029799
    159 N14        -4.5200   -1.7380    0.3570 n         1 MOL     -0.005597
    160 C53        -3.7870   -2.1960    1.5380 c3        1 MOL     -0.015242
    161 C54        -4.3260   -1.7120    2.9020 c         1 MOL      0.439705
    162 O24        -3.9910   -2.2970    3.9190 o         1 MOL     -0.573501
    163 C55        -2.2960   -1.7680    1.3330 c3        1 MOL      0.041751
    164 C56        -1.6850   -2.2040    0.0170 c3        1 MOL      0.085677
    165 C57        -0.3300   -1.4300   -0.1560 c         1 MOL      0.761797
    166 O25         0.7370   -2.0180   -0.3710 o         1 MOL     -0.726088
    167 O26        -0.3450   -0.1790   -0.2440 o         1 MOL     -0.726088
    168 H71        -4.5110   -0.7440    0.1680 hn        1 MOL      0.084364
    169 H72        -3.8680   -3.2810    1.5470 h1        1 MOL      0.061927
    170 H73        -1.6530   -2.1160    2.1440 hc        1 MOL     -0.013340
    171 H74        -2.2520   -0.6780    1.2720 hc        1 MOL     -0.013340
    172 H75        -2.2590   -2.0680   -0.8920 hc        1 MOL     -0.058577
    173 H76        -1.4410   -3.2610    0.1360 hc        1 MOL     -0.058577
    174 N15        -5.0440   -0.6040    2.9190 n         1 MOL      0.004255
    175 C58        -5.8960   -0.1760    4.0670 c3        1 MOL     -0.345946
    176 H77        -6.7270    0.4270    3.6980 h1        1 MOL      0.118146
    177 H78        -6.2860   -1.0550    4.5790 h1        1 MOL      0.118146
    178 H79        -5.3000    0.4150    4.7620 h1        1 MOL      0.118146
    179 H80        -5.3370   -0.2910    1.9970 hn        1 MOL      0.010299
    180 Ca1         2.2020    0.0310   -1.1930 Ca        1 MOL      1.707794
    181 O27         1.7580    2.5570   -2.2330 oh        1 MOL     -0.948460
    182 H81         2.6940    2.7290   -2.1790 ho        1 MOL      0.431370
    183 H82         1.6260    2.1920   -3.1160 ho        1 MOL      0.431370
    184 O28         0.7060   -0.4200   -3.3390 oh        1 MOL     -0.948460
    185 H83         1.2860   -1.0270   -3.7950 ho        1 MOL      0.431370
    186 H84        -0.0960   -0.4100   -3.8660 ho        1 MOL      0.431370
@<TRIPOS>BOND
     1    1    2 1   
     2    1    4 1   
     3    1    5 1   
     4    1    6 1   
     5    2    3 2   
     6    2    7 1   
     7    7    8 1   
     8    7   15 1   
     9    8    9 1   
    10    8   11 1   
    11    8   16 1   
    12    9   10 2   
    13    9   19 1   
    14   11   12 1   
    15   11   17 1   
    16   11   18 1   
    17   12   13 1   
    18   12   14 1   
    19   19   20 1   
    20   19   27 1   
    21   20   21 1   
    22   20   23 1   
    23   20   28 1   
    24   21   22 2   
    25   21   38 1   
    26   23   24 1   
    27   23   25 1   
    28   23   29 1   
    29   24   26 1   
    30   24   30 1   
    31   24   31 1   
    32   25   32 1   
    33   25   33 1   
    34   25   34 1   
    35   26   35 1   
    36   26   36 1   
    37   26   37 1   
    38   38   39 1   
    39   38   46 1   
    40   39   40 1   
    41   39   42 1   
    42   39   47 1   
    43   40   41 2   
    44   40   50 1   
    45   42   43 1   
    46   42   48 1   
    47   42   49 1   
    48   43   44 1   
    49   43   45 1   
    50   50   51 1   
    51   50   54 1   
    52   51   52 1   
    53   51   55 1   
    54   51   56 1   
    55   52   53 2   
    56   52   57 1   
    57   57   58 1   
    58   57   65 1   
    59   58   59 1   
    60   58   61 1   
    61   58   66 1   
    62   59   60 2   
    63   59   69 1   
    64   61   62 1   
    65   61   67 1   
    66   61   68 1   
    67   62   63 1   
    68   62   64 1   
    69   69   70 1   
    70   69   73 1   
    71   70   71 1   
    72   70   74 1   
    73   70   75 1   
    74   71   72 2   
    75   71   76 1   
    76   76   77 1   
    77   76   85 1   
    78   77   78 1   
    79   77   80 1   
    80   77   86 1   
    81   78   79 2   
    82   78   93 1   
    83   80   81 1   
    84   80   87 1   
    85   80   88 1   
    86   81   82 1   
    87   81   89 1   
    88   81   90 1   
    89   82   83 1   
    90   82   84 2   
    91   83   91 1   
    92   83   92 1   
    93   93   94 1   
    94   93  100 1   
    95   94   95 1   
    96   94   97 1   
    97   94  101 1   
    98   95   96 2   
    99   95  109 1   
   100   97   98 1   
   101   97   99 1   
   102   97  102 1   
   103   98  103 1   
   104   98  104 1   
   105   98  105 1   
   106   99  106 1   
   107   99  107 1   
   108   99  108 1   
   109  109  110 1   
   110  109  117 1   
   111  110  111 1   
   112  110  113 1   
   113  110  118 1   
   114  111  112 2   
   115  111  123 1   
   116  113  114 1   
   117  113  119 1   
   118  113  120 1   
   119  114  115 1   
   120  114  116 2   
   121  115  121 1   
   122  115  122 1   
   123  123  124 1   
   124  123  135 1   
   125  124  125 1   
   126  124  127 1   
   127  124  136 1   
   128  125  126 2   
   129  125  144 1   
   130  127  128 1   
   131  127  137 1   
   132  127  138 1   
   133  128  129 ar  
   134  128  130 ar  
   135  129  131 ar  
   136  129  139 1   
   137  130  132 ar  
   138  130  140 1   
   139  131  133 ar  
   140  131  141 1   
   141  132  133 ar  
   142  132  142 1   
   143  133  134 1   
   144  134  143 1   
   145  144  145 1   
   146  144  153 1   
   147  145  146 1   
   148  145  148 1   
   149  145  154 1   
   150  146  147 2   
   151  146  159 1   
   152  148  149 1   
   153  148  155 1   
   154  148  156 1   
   155  149  150 1   
   156  149  157 1   
   157  149  158 1   
   158  150  151 1   
   159  150  152 1   
   160  159  160 1   
   161  159  168 1   
   162  160  161 1   
   163  160  163 1   
   164  160  169 1   
   165  161  162 2   
   166  161  174 1   
   167  163  164 1   
   168  163  170 1   
   169  163  171 1   
   170  164  165 1   
   171  164  172 1   
   172  164  173 1   
   173  165  166 1   
   174  165  167 1   
   175  174  175 1   
   176  174  179 1   
   177  175  176 1   
   178  175  177 1   
   179  175  178 1   
   180  181  182 1   
   181  181  183 1   
   182  184  185 1   
   183  184  186 1   
@<TRIPOS>SUBSTRUCTURE
     1 MOL         1 TEMP              0 ****  ****    0 ROOT
