@<TRIPOS>MOLECULE
MOL
  189   185     1     0     0
SMALL
resp


@<TRIPOS>ATOM
      1 C1         -0.4070    1.5310    6.4540 c3        1 MOL     -0.261135
      2 C2         -0.7570    1.3250    4.9410 c         1 MOL      0.822452
      3 O1          0.0740    1.5240    4.0610 o         1 MOL     -0.667047
      4 H1         -0.7130    2.5300    6.7640 hc        1 MOL      0.064087
      5 H2         -0.9340    0.7880    7.0530 hc        1 MOL      0.064087
      6 H3          0.6670    1.4200    6.5980 hc        1 MOL      0.064087
      7 N1         -2.0150    1.0120    4.6050 n         1 MOL     -0.763034
      8 C3         -2.5830    1.0300    3.2070 c3        1 MOL      0.419409
      9 C4         -3.0580    2.4690    2.9010 c         1 MOL      0.378954
     10 O2         -4.0770    3.0130    3.2970 o         1 MOL     -0.530073
     11 C5         -3.6510   -0.0370    2.9730 c3        1 MOL     -0.328587
     12 C6         -4.2650   -0.0540    1.5850 c         1 MOL      0.705601
     13 O3         -3.8750    0.7840    0.7300 o         1 MOL     -0.576676
     14 O4         -5.2160   -0.8300    1.3860 o         1 MOL     -0.576676
     15 H4         -2.6040    0.6780    5.3560 hn        1 MOL      0.348717
     16 H5         -1.7890    0.8900    2.4630 h1        1 MOL     -0.048137
     17 H6         -4.4690    0.1270    3.6850 hc        1 MOL      0.064465
     18 H7         -3.2070   -1.0110    3.1690 hc        1 MOL      0.064465
     19 N2         -2.2510    3.0060    1.9990 n         1 MOL     -0.057877
     20 C7         -2.1770    4.4430    1.7440 c3        1 MOL     -0.105429
     21 C8         -3.2980    4.9710    0.8740 c         1 MOL      0.551456
     22 O5         -3.5170    6.1550    0.8510 o         1 MOL     -0.598948
     23 C9         -0.8150    4.8650    1.2110 c3        1 MOL     -0.237125
     24 C10        -0.6720    4.6970   -0.3490 c3        1 MOL     -0.000849
     25 C11         0.7720    4.8440   -0.6790 c3        1 MOL     -0.280583
     26 C12         1.0510    4.1210   -2.0570 c3        1 MOL      0.194223
     27 N3          0.1900    4.5780   -3.1610 n4        1 MOL     -0.322854
     28 H8         -1.4760    2.5190    1.5760 hn        1 MOL      0.113788
     29 H9         -2.3300    4.9420    2.7080 h1        1 MOL      0.099389
     30 H10        -0.0700    4.2320    1.6990 hc        1 MOL      0.117287
     31 H11        -0.5790    5.8950    1.4990 hc        1 MOL      0.117287
     32 H12        -1.2050    5.4360   -0.9420 hc        1 MOL      0.074007
     33 H13        -0.9400    3.6670   -0.5950 hc        1 MOL      0.074007
     34 H14         1.3360    4.3610    0.1130 hc        1 MOL      0.089501
     35 H15         1.0180    5.8850   -0.8920 hc        1 MOL      0.089501
     36 H16         1.0940    3.0410   -1.9110 hx        1 MOL     -0.018008
     37 H17         2.0740    4.3920   -2.3140 hx        1 MOL     -0.018008
     38 H18         0.7020    4.5810   -4.0280 hn        1 MOL      0.303329
     39 H19        -0.6010    3.9430   -3.1930 hn        1 MOL      0.303329
     40 H20        -0.1570    5.5310   -3.1750 hn        1 MOL      0.303329
     41 N4         -3.9300    4.1080    0.1470 n         1 MOL     -0.198463
     42 C13        -4.9460    4.4920   -0.8510 c3        1 MOL      0.018019
     43 C14        -6.1270    3.5700   -0.6520 c         1 MOL      0.429044
     44 O6         -7.1890    3.9800   -1.0980 o         1 MOL     -0.542241
     45 C15        -4.3410    4.4230   -2.2070 c3        1 MOL     -0.189971
     46 C16        -3.1660    3.4700   -2.5850 c         1 MOL      0.871506
     47 O7         -2.3710    3.8380   -3.4680 o         1 MOL     -0.789694
     48 O8         -2.8840    2.4650   -1.8990 o         1 MOL     -0.789694
     49 H21        -3.6120    3.1590    0.3190 hn        1 MOL     -0.087109
     50 H22        -5.2880    5.5100   -0.6940 h1        1 MOL      0.120593
     51 H23        -3.9070    5.3910   -2.4590 hc        1 MOL      0.050264
     52 H24        -5.1260    4.3620   -2.9510 hc        1 MOL      0.050264
     53 N5         -6.0390    2.4320   -0.0520 n         1 MOL     -0.098001
     54 C17        -7.2720    1.6710    0.3720 c3        1 MOL     -0.110050
     55 C18        -7.7260    0.7210   -0.7240 c         1 MOL      0.532845
     56 O9         -8.7840    0.9400   -1.2550 o         1 MOL     -0.548179
     57 H25        -5.1790    2.0640    0.3350 hn        1 MOL      0.184517
     58 H26        -8.1080    2.2780    0.7060 h1        1 MOL      0.076313
     59 H27        -7.0210    1.0730    1.2390 h1        1 MOL      0.076313
     60 N6         -6.8850   -0.2420   -1.0090 n         1 MOL     -0.239881
     61 C19        -7.0960   -1.3460   -2.0170 c3        1 MOL      0.151299
     62 C20        -7.0620   -2.7390   -1.3810 c         1 MOL      0.327754
     63 O10        -7.3610   -3.7280   -2.0540 o         1 MOL     -0.522000
     64 C21        -6.0830   -1.2810   -3.1580 c3        1 MOL     -0.268476
     65 C22        -4.6430   -1.0590   -2.6710 c         1 MOL      0.704790
     66 O11        -4.2690   -1.6080   -1.5990 o         1 MOL     -0.707646
     67 O12        -3.8200   -0.3800   -3.2610 o         1 MOL     -0.707646
     68 H28        -5.9650   -0.1620   -0.6270 hn        1 MOL      0.074535
     69 H29        -8.1240   -1.2370   -2.3650 h1        1 MOL      0.066542
     70 H30        -6.3130   -0.3710   -3.7160 hc        1 MOL      0.084660
     71 H31        -6.1210   -2.1710   -3.7930 hc        1 MOL      0.084660
     72 N7         -6.8560   -2.7720   -0.0720 n         1 MOL     -0.134480
     73 C23        -6.7730   -4.0130    0.7320 c3        1 MOL     -0.222259
     74 C24        -5.3320   -4.5680    0.8260 c         1 MOL      0.520292
     75 O13        -5.1750   -5.7070    1.3100 o         1 MOL     -0.563755
     76 H32        -6.7670   -1.8310    0.2770 hn        1 MOL      0.151767
     77 H33        -7.3600   -4.8060    0.2620 h1        1 MOL      0.129285
     78 H34        -7.0540   -3.8280    1.7650 h1        1 MOL      0.129285
     79 N8         -4.3350   -3.8510    0.2500 n         1 MOL     -0.093880
     80 C25        -2.9050   -4.3750    0.0710 c3        1 MOL     -0.400079
     81 C26        -1.8320   -3.3160    0.4350 c         1 MOL      0.766481
     82 O14        -1.9200   -2.0660    0.2450 o         1 MOL     -0.662325
     83 C27        -2.6750   -4.8940   -1.4000 c3        1 MOL      0.447216
     84 C28        -3.6220   -6.1550   -1.7010 c3        1 MOL     -0.607726
     85 O15        -3.0210   -3.9450   -2.3980 oh        1 MOL     -0.642488
     86 H35        -4.6440   -2.9200    0.0330 hn        1 MOL      0.062837
     87 H36        -2.7380   -5.2270    0.7290 h1        1 MOL      0.144961
     88 H37        -1.6230   -5.1370   -1.5250 h1        1 MOL      0.009174
     89 H38        -3.6300   -3.3530   -1.9530 ho        1 MOL      0.464563
     90 H39        -4.6630   -5.8560   -1.5650 hc        1 MOL      0.170853
     91 H40        -3.5240   -6.5470   -2.7130 hc        1 MOL      0.170853
     92 H41        -3.4580   -6.9920   -1.0140 hc        1 MOL      0.170853
     93 N9         -0.6450   -3.8540    0.8350 n         1 MOL     -0.590842
     94 C29         0.6360   -3.1610    1.0880 c3        1 MOL      0.143201
     95 C30         1.6590   -3.4280   -0.0930 c         1 MOL      0.476010
     96 O16         1.8990   -4.6180   -0.4070 o         1 MOL     -0.557976
     97 C31         1.1970   -3.5420    2.5300 c3        1 MOL     -0.012944
     98 C32         0.4870   -2.7630    3.5850 c3        1 MOL      0.162916
     99 C33         2.6410   -3.1120    2.5790 c3        1 MOL     -0.244340
    100 C34         0.7840   -2.9730    5.0660 c3        1 MOL     -0.290160
    101 H42        -0.7560   -4.8500    0.9180 hn        1 MOL      0.307495
    102 H43         0.4120   -2.1020    0.9890 h1        1 MOL     -0.000107
    103 H44         1.0360   -4.6060    2.6740 hc        1 MOL      0.048418
    104 H45        -0.5640   -3.0580    3.5310 hc        1 MOL     -0.003043
    105 H46         0.5530   -1.6810    3.5180 hc        1 MOL     -0.003043
    106 H47         3.1150   -3.1800    3.5640 hc        1 MOL      0.055126
    107 H48         3.2700   -3.7860    2.0010 hc        1 MOL      0.055126
    108 H49         2.5840   -2.0740    2.2560 hc        1 MOL      0.055126
    109 H50         0.9210   -4.0370    5.2490 hc        1 MOL      0.067155
    110 H51         1.7480   -2.5320    5.3320 hc        1 MOL      0.067155
    111 H52        -0.0180   -2.4770    5.5960 hc        1 MOL      0.067155
    112 N10         2.2460   -2.3520   -0.5810 n         1 MOL     -0.170242
    113 C35         3.3950   -2.2690   -1.5340 c3        1 MOL     -0.026172
    114 C36         4.7050   -2.1260   -0.7150 c         1 MOL      0.416405
    115 O17         4.6970   -1.8310    0.5040 o         1 MOL     -0.393429
    116 C37         3.2100   -1.1090   -2.5610 c3        1 MOL      0.379797
    117 C38         2.0840   -1.4740   -3.5610 c3        1 MOL     -0.361433
    118 O18         2.9120    0.1150   -2.0040 oh        1 MOL     -0.595971
    119 H53         1.9210   -1.4380   -0.3170 hn        1 MOL      0.164257
    120 H54         3.5230   -3.1950   -2.0890 h1        1 MOL      0.082966
    121 H55         4.1360   -0.9880   -3.1210 h1        1 MOL     -0.052666
    122 H56         2.0130    0.0650   -1.6690 ho        1 MOL      0.293604
    123 H57         1.8550   -0.7990   -4.3830 hc        1 MOL      0.074067
    124 H58         2.5410   -2.3520   -4.0190 hc        1 MOL      0.074067
    125 H59         1.1930   -1.6400   -2.9500 hc        1 MOL      0.074067
    126 N11         5.8660   -2.3040   -1.4060 n         1 MOL     -0.364046
    127 C39         7.2270   -2.1990   -0.9150 c3        1 MOL      0.076676
    128 C40         7.4210   -0.9630   -0.0430 c         1 MOL      0.074455
    129 O19         7.8010   -1.0790    1.1220 o         1 MOL     -0.433275
    130 C41         8.2320   -2.1590   -2.0240 c3        1 MOL      0.406337
    131 C42         9.5470   -2.6930   -1.5570 c3        1 MOL     -0.337150
    132 O20         7.8760   -2.9570   -3.0640 oh        1 MOL     -0.590481
    133 H60         5.7650   -2.6840   -2.3400 hn        1 MOL      0.230022
    134 H61         7.3540   -3.0070   -0.1840 h1        1 MOL      0.117581
    135 H62         8.3570   -1.1350   -2.3560 h1        1 MOL     -0.090904
    136 H63         8.5910   -2.8370   -3.6940 ho        1 MOL      0.381257
    137 H64        10.2020   -3.0780   -2.3330 hc        1 MOL      0.089182
    138 H65        10.0630   -1.8330   -1.1300 hc        1 MOL      0.089182
    139 H66         9.3520   -3.5410   -0.9020 hc        1 MOL      0.089182
    140 N12         6.9970    0.1550   -0.6000 n         1 MOL      0.079169
    141 C43         7.2020    1.4660    0.0660 c3        1 MOL     -0.010281
    142 C44         6.1930    1.6430    1.1880 c         1 MOL      0.339149
    143 O21         6.4850    2.2280    2.2370 o         1 MOL     -0.477513
    144 C45         7.2980    2.6110   -0.9910 c3        1 MOL     -0.329611
    145 C46         8.3120    2.3460   -2.1700 c3        1 MOL     -0.179139
    146 C47         9.6920    2.4800   -1.6110 c3        1 MOL      0.009029
    147 C48        10.7500    2.0640   -2.6600 c3        1 MOL     -0.022572
    148 N13        12.1610    2.3940   -2.2480 n4        1 MOL     -0.312073
    149 H67         6.4900    0.0540   -1.4670 hn        1 MOL      0.176940
    150 H68         8.1170    1.4860    0.6680 h1        1 MOL      0.080746
    151 H69         7.4650    3.5420   -0.4630 hc        1 MOL      0.152053
    152 H70         6.3540    2.7130   -1.5300 hc        1 MOL      0.152053
    153 H71         8.1280    3.1560   -2.8810 hc        1 MOL      0.082178
    154 H72         8.2030    1.3660   -2.6380 hc        1 MOL      0.082178
    155 H73         9.8060    1.9130   -0.6800 hc        1 MOL      0.067418
    156 H74         9.8920    3.5030   -1.2870 hc        1 MOL      0.067418
    157 H75        10.5920    2.6530   -3.5690 hx        1 MOL      0.094194
    158 H76        10.6650    0.9940   -2.8420 hx        1 MOL      0.094194
    159 H77        12.8310    2.1660   -2.9720 hn        1 MOL      0.300952
    160 H78        12.1690    3.3840   -2.0270 hn        1 MOL      0.300952
    161 H79        12.5050    1.8790   -1.4460 hn        1 MOL      0.300952
    162 N14         4.9210    1.1340    1.0820 n         1 MOL     -0.190943
    163 C49         3.9810    0.9610    2.1580 c3        1 MOL     -0.209295
    164 C50         4.4780    0.1360    3.3890 c         1 MOL      0.490294
    165 O22         3.9720    0.3420    4.4690 o         1 MOL     -0.526341
    166 C51         2.5420    0.6450    1.6510 c3        1 MOL      0.042806
    167 C52         1.8540    1.6920    0.7250 c3        1 MOL     -0.111992
    168 C53         0.5790    1.0440    0.0720 c         1 MOL      0.869094
    169 O23         0.6100    0.1330   -0.7650 o         1 MOL     -0.713991
    170 O24        -0.5220    1.4500    0.3280 o         1 MOL     -0.713991
    171 H80         4.6630    0.5760    0.2780 hn        1 MOL      0.104016
    172 H81         3.9050    1.9720    2.5560 h1        1 MOL      0.138312
    173 H82         1.8460    0.3720    2.4390 hc        1 MOL      0.084625
    174 H83         2.7810   -0.2890    1.1380 hc        1 MOL      0.084625
    175 H84         2.5110    2.0130   -0.0840 hc        1 MOL      0.020133
    176 H85         1.5980    2.5810    1.2930 hc        1 MOL      0.020133
    177 N15         5.2930   -0.8590    3.1020 n         1 MOL     -0.122020
    178 C54         5.8330   -1.7310    4.0790 c3        1 MOL     -0.252142
    179 H86         5.5610   -1.3750    5.0730 h1        1 MOL      0.096529
    180 H87         5.4340   -2.7340    3.9310 h1        1 MOL      0.096529
    181 H88         6.9180   -1.7540    3.9850 h1        1 MOL      0.096529
    182 H89         5.5660   -0.9890    2.1360 hn        1 MOL      0.229418
    183 Ca1        -2.0710    0.0590   -1.2750 Ca        1 MOL      1.731826
    184 O25        -1.4090   -1.8470   -2.8310 oh        1 MOL     -0.722877
    185 H90        -1.3970   -1.5990   -3.7560 ho        1 MOL      0.370361
    186 H91        -1.8680   -2.6790   -2.8080 ho        1 MOL      0.370361
    187 O26        -0.8090    0.9340   -3.4280 oh        1 MOL     -0.722877
    188 H92        -0.8740    0.4250   -4.2380 ho        1 MOL      0.370361
    189 H93         0.0430    1.3680   -3.4930 ho        1 MOL      0.370361
@<TRIPOS>BOND
     1    1    2 1   
     2    1    4 1   
     3    1    5 1   
     4    1    6 1   
     5    2    3 2   
     6    2    7 1   
     7    7    8 1   
     8    7   15 1   
     9    8    9 1   
    10    8   11 1   
    11    8   16 1   
    12    9   10 2   
    13    9   19 1   
    14   11   12 1   
    15   11   17 1   
    16   11   18 1   
    17   12   13 1   
    18   12   14 1   
    19   19   20 1   
    20   19   28 1   
    21   20   21 1   
    22   20   23 1   
    23   20   29 1   
    24   21   22 2   
    25   21   41 1   
    26   23   24 1   
    27   23   30 1   
    28   23   31 1   
    29   24   25 1   
    30   24   32 1   
    31   24   33 1   
    32   25   26 1   
    33   25   34 1   
    34   25   35 1   
    35   26   27 1   
    36   26   36 1   
    37   26   37 1   
    38   27   38 1   
    39   27   39 1   
    40   27   40 1   
    41   41   42 1   
    42   41   49 1   
    43   42   43 1   
    44   42   45 1   
    45   42   50 1   
    46   43   44 2   
    47   43   53 1   
    48   45   46 1   
    49   45   51 1   
    50   45   52 1   
    51   46   47 1   
    52   46   48 1   
    53   53   54 1   
    54   53   57 1   
    55   54   55 1   
    56   54   58 1   
    57   54   59 1   
    58   55   56 2   
    59   55   60 1   
    60   60   61 1   
    61   60   68 1   
    62   61   62 1   
    63   61   64 1   
    64   61   69 1   
    65   62   63 2   
    66   62   72 1   
    67   64   65 1   
    68   64   70 1   
    69   64   71 1   
    70   65   66 1   
    71   65   67 1   
    72   72   73 1   
    73   72   76 1   
    74   73   74 1   
    75   73   77 1   
    76   73   78 1   
    77   74   75 2   
    78   74   79 1   
    79   79   80 1   
    80   79   86 1   
    81   80   81 1   
    82   80   83 1   
    83   80   87 1   
    84   81   82 2   
    85   81   93 1   
    86   83   84 1   
    87   83   85 1   
    88   83   88 1   
    89   84   90 1   
    90   84   91 1   
    91   84   92 1   
    92   85   89 1   
    93   93   94 1   
    94   93  101 1   
    95   94   95 1   
    96   94   97 1   
    97   94  102 1   
    98   95   96 2   
    99   95  112 1   
   100   97   98 1   
   101   97   99 1   
   102   97  103 1   
   103   98  100 1   
   104   98  104 1   
   105   98  105 1   
   106   99  106 1   
   107   99  107 1   
   108   99  108 1   
   109  100  109 1   
   110  100  110 1   
   111  100  111 1   
   112  112  113 1   
   113  112  119 1   
   114  113  114 1   
   115  113  116 1   
   116  113  120 1   
   117  114  115 2   
   118  114  126 1   
   119  116  117 1   
   120  116  118 1   
   121  116  121 1   
   122  117  123 1   
   123  117  124 1   
   124  117  125 1   
   125  118  122 1   
   126  126  127 1   
   127  126  133 1   
   128  127  128 1   
   129  127  130 1   
   130  127  134 1   
   131  128  129 2   
   132  128  140 1   
   133  130  131 1   
   134  130  132 1   
   135  130  135 1   
   136  131  137 1   
   137  131  138 1   
   138  131  139 1   
   139  132  136 1   
   140  140  141 1   
   141  140  149 1   
   142  141  142 1   
   143  141  144 1   
   144  141  150 1   
   145  142  143 2   
   146  142  162 1   
   147  144  145 1   
   148  144  151 1   
   149  144  152 1   
   150  145  146 1   
   151  145  153 1   
   152  145  154 1   
   153  146  147 1   
   154  146  155 1   
   155  146  156 1   
   156  147  148 1   
   157  147  157 1   
   158  147  158 1   
   159  148  159 1   
   160  148  160 1   
   161  148  161 1   
   162  162  163 1   
   163  162  171 1   
   164  163  164 1   
   165  163  166 1   
   166  163  172 1   
   167  164  165 2   
   168  164  177 1   
   169  166  167 1   
   170  166  173 1   
   171  166  174 1   
   172  167  168 1   
   173  167  175 1   
   174  167  176 1   
   175  168  169 1   
   176  168  170 1   
   177  177  178 1   
   178  177  182 1   
   179  178  179 1   
   180  178  180 1   
   181  178  181 1   
   182  184  185 1   
   183  184  186 1   
   184  187  188 1   
   185  187  189 1   
@<TRIPOS>SUBSTRUCTURE
     1 MOL         1 TEMP              0 ****  ****    0 ROOT
