@<TRIPOS>MOLECULE
MOL
  182   178     1     0     0
SMALL
resp


@<TRIPOS>ATOM
      1 C1          1.7960    3.5560    5.7200 c3        1 MOL     -0.412142
      2 C2          1.5580    3.1300    4.3170 c         1 MOL      0.832278
      3 O1          2.4350    3.1550    3.4430 o         1 MOL     -0.695683
      4 H1          0.9190    3.3200    6.3240 hc        1 MOL      0.099689
      5 H2          2.6630    3.0300    6.1180 hc        1 MOL      0.099689
      6 H3          1.9770    4.6300    5.7480 hc        1 MOL      0.099689
      7 N1          0.3200    2.8500    4.0710 n         1 MOL     -0.583340
      8 C3         -0.2230    2.5710    2.7580 c3        1 MOL     -0.023293
      9 C4         -0.3330    3.9170    2.0300 c         1 MOL      0.624833
     10 O2         -0.9720    4.8870    2.4370 o         1 MOL     -0.572328
     11 C5         -1.5630    1.8480    2.8740 c3        1 MOL     -0.055309
     12 C6         -2.3480    1.4890    1.6550 c         1 MOL      0.912571
     13 O3         -1.9300    1.7100    0.5350 o         1 MOL     -0.830161
     14 O4         -3.3530    0.8270    1.8220 o         1 MOL     -0.830161
     15 H4         -0.2980    2.7960    4.8620 hn        1 MOL      0.316692
     16 H5          0.5050    1.9080    2.2890 h1        1 MOL      0.075503
     17 H6         -2.2740    2.3570    3.5230 hc        1 MOL      0.006716
     18 H7         -1.4180    0.8410    3.2780 hc        1 MOL      0.006716
     19 N2          0.3670    3.9010    0.8870 n         1 MOL     -0.466291
     20 C7          0.5790    5.0840    0.0620 c3        1 MOL      0.083030
     21 C8         -0.5300    5.4330   -0.8780 c         1 MOL      0.346808
     22 O5         -0.5730    6.5160   -1.5200 o         1 MOL     -0.554078
     23 C9          1.9310    5.1210   -0.6430 c3        1 MOL     -0.049036
     24 C10         3.2550    5.1780    0.2780 c3        1 MOL     -0.002191
     25 C11         4.5370    5.6070   -0.5490 c3        1 MOL     -0.271732
     26 C12         5.8210    5.6220    0.2970 c3        1 MOL      0.316277
     27 N3          6.9520    6.0960   -0.5210 n4        1 MOL     -0.553182
     28 H8          0.8030    3.0140    0.6520 hn        1 MOL      0.294106
     29 H9          0.7460    5.9290    0.7410 h1        1 MOL      0.084763
     30 H10         1.9270    6.1210   -1.0790 hc        1 MOL      0.029468
     31 H11         2.0480    4.3220   -1.3670 hc        1 MOL      0.029468
     32 H12         3.4580    4.1230    0.4650 hc        1 MOL      0.071860
     33 H13         3.1370    5.8300    1.1330 hc        1 MOL      0.071860
     34 H14         4.3450    6.6260   -0.8850 hc        1 MOL      0.074504
     35 H15         4.6920    4.9570   -1.4090 hc        1 MOL      0.074504
     36 H16         5.9850    4.6680    0.7960 hx        1 MOL      0.030411
     37 H17         5.7030    6.2960    1.1530 hx        1 MOL      0.030411
     38 H18         6.9180    7.0970   -0.6430 hn        1 MOL      0.367516
     39 H19         7.8660    5.9570   -0.1120 hn        1 MOL      0.367516
     40 H20         6.9920    5.5670   -1.3760 hn        1 MOL      0.367516
     41 N4         -1.5390    4.5720   -1.0480 n         1 MOL     -0.205039
     42 C13        -2.8070    5.0110   -1.7710 c3        1 MOL      0.037160
     43 C14        -4.1300    4.7470   -1.0170 c         1 MOL      0.327907
     44 O6         -5.2690    5.1480   -1.3600 o         1 MOL     -0.503911
     45 C15        -2.8130    4.3970   -3.2080 c3        1 MOL     -0.230958
     46 C16        -2.9730    2.8860   -3.2160 c         1 MOL      0.906146
     47 O7         -2.9180    2.2960   -2.1400 o         1 MOL     -0.766130
     48 O8         -3.0610    2.3340   -4.3230 o         1 MOL     -0.766130
     49 H21        -1.4050    3.6170   -0.7730 hn        1 MOL      0.296804
     50 H22        -2.8160    6.0880   -1.9400 h1        1 MOL      0.125494
     51 H23        -1.9160    4.6730   -3.7740 hc        1 MOL      0.048144
     52 H24        -3.6740    4.8340   -3.7170 hc        1 MOL      0.048144
     53 N5         -3.9830    4.0230    0.0980 n         1 MOL     -0.061502
     54 C17        -5.1540    3.7280    0.9080 c3        1 MOL     -0.179533
     55 C18        -6.1710    2.6820    0.4060 c         1 MOL      0.545171
     56 O9         -7.2870    2.6360    0.8340 o         1 MOL     -0.589045
     57 H25        -3.0850    3.7260    0.4500 hn        1 MOL      0.062393
     58 H26        -5.6700    4.6770    1.0600 h1        1 MOL      0.098963
     59 H27        -4.8090    3.4130    1.8850 h1        1 MOL      0.098963
     60 N6         -5.7460    1.7060   -0.3680 n         1 MOL     -0.143564
     61 C19        -6.5170    0.6600   -0.9750 c3        1 MOL     -0.170251
     62 C20        -6.6690   -0.6320   -0.0920 c         1 MOL      0.243848
     63 O10        -7.2140   -1.6400   -0.5010 o         1 MOL     -0.388868
     64 C21        -5.8460    0.4140   -2.3430 c3        1 MOL     -0.218782
     65 C22        -4.7200   -0.6050   -2.3020 c         1 MOL      0.508161
     66 N7         -4.8160   -1.6480   -3.0100 n         1 MOL     -0.631565
     67 O11        -3.7330   -0.3640   -1.6190 o         1 MOL     -0.536755
     68 H28        -4.7780    1.8350   -0.6200 hn        1 MOL      0.172720
     69 H29        -7.5460    0.9930   -1.0340 h1        1 MOL      0.174017
     70 H30        -5.5120    1.3320   -2.8210 hc        1 MOL      0.111570
     71 H31        -6.6240    0.0710   -3.0150 hc        1 MOL      0.111570
     72 H32        -5.6290   -1.7560   -3.5910 hn        1 MOL      0.345911
     73 H33        -4.0200   -2.2730   -3.0460 hn        1 MOL      0.345911
     74 N8         -6.2390   -0.5500    1.1580 n         1 MOL     -0.079013
     75 C23        -6.2510   -1.6540    2.1850 c3        1 MOL     -0.499042
     76 C24        -5.0380   -2.6960    2.1230 c         1 MOL      0.676754
     77 O12        -5.2090   -3.8170    2.5490 o         1 MOL     -0.504130
     78 H34        -5.7780    0.3420    1.2960 hn        1 MOL      0.249193
     79 H35        -7.1250   -2.2840    2.0370 h1        1 MOL      0.199047
     80 H36        -6.2660   -1.0900    3.1210 h1        1 MOL      0.199047
     81 N9         -3.9330   -2.2630    1.5060 n         1 MOL     -0.679886
     82 C25        -2.8330   -3.1560    1.2300 c3        1 MOL      0.120435
     83 C26        -1.5300   -2.3830    1.2280 c         1 MOL      0.632657
     84 O13        -1.3220   -1.4100    0.4510 o         1 MOL     -0.645451
     85 C27        -3.0050   -4.0450   -0.0430 c3        1 MOL      0.116284
     86 C28        -4.3390   -4.7300   -0.0870 ca        1 MOL     -0.223861
     87 C29        -5.4700   -4.0520   -0.7040 ca        1 MOL     -0.073012
     88 C30        -4.5380   -5.9690    0.5630 ca        1 MOL     -0.073012
     89 C31        -6.7240   -4.7000   -0.6630 ca        1 MOL     -0.253276
     90 C32        -5.7700   -6.5800    0.4520 ca        1 MOL     -0.253276
     91 C33        -6.8580   -5.9270   -0.0940 ca        1 MOL      0.407492
     92 O14        -8.1260   -6.5330   -0.0920 oh        1 MOL     -0.538212
     93 H37        -3.8890   -1.2990    1.2340 hn        1 MOL      0.512890
     94 H38        -2.8120   -3.8780    2.0450 h1        1 MOL      0.052614
     95 H39        -2.1680   -4.7410   -0.0730 hc        1 MOL     -0.010728
     96 H40        -2.9630   -3.2610   -0.8060 hc        1 MOL     -0.010728
     97 H41        -5.3860   -3.0760   -1.1570 ha        1 MOL      0.120970
     98 H42        -3.6740   -6.4250    1.0220 ha        1 MOL      0.120970
     99 H43        -7.5290   -4.1760   -1.1710 ha        1 MOL      0.121339
    100 H44        -5.8560   -7.5890    0.8450 ha        1 MOL      0.121339
    101 H45        -8.1850   -7.3660    0.3800 ho        1 MOL      0.369111
    102 N10        -0.5100   -2.9360    1.8630 n         1 MOL     -0.647726
    103 C34         0.9160   -2.4380    1.8600 c3        1 MOL      0.077582
    104 C35         1.7300   -3.4810    1.1380 c         1 MOL      0.526170
    105 O15         1.8570   -4.6120    1.5780 o         1 MOL     -0.536967
    106 C36         1.3870   -2.1990    3.2890 c3        1 MOL      0.060053
    107 C37         0.4100   -1.3650    4.0610 c3        1 MOL      0.288040
    108 C38         2.8900   -1.7340    3.3540 c3        1 MOL     -0.284931
    109 C39         0.9020   -1.0630    5.4720 c3        1 MOL     -0.456522
    110 H46        -0.6730   -3.8360    2.2740 hn        1 MOL      0.338577
    111 H47         1.0270   -1.5200    1.2900 h1        1 MOL      0.054702
    112 H48         1.4590   -3.1940    3.7470 hc        1 MOL      0.010448
    113 H49        -0.4640   -2.0060    4.1510 hc        1 MOL     -0.034494
    114 H50         0.1840   -0.4780    3.4650 hc        1 MOL     -0.034494
    115 H51         3.4640   -2.3760    2.6850 hc        1 MOL      0.065609
    116 H52         3.0580   -0.7170    3.0000 hc        1 MOL      0.065609
    117 H53         3.2910   -1.6970    4.3780 hc        1 MOL      0.065609
    118 H54         1.7440   -0.3660    5.4000 hc        1 MOL      0.106661
    119 H55         0.0500   -0.7060    6.0440 hc        1 MOL      0.106661
    120 H56         1.1910   -1.8960    6.1000 hc        1 MOL      0.106661
    121 N11         2.2230   -3.0510    0.0070 n         1 MOL     -0.252170
    122 C40         3.0900   -3.8040   -0.8970 c3        1 MOL     -0.104104
    123 C41         4.5180   -3.9260   -0.4360 c         1 MOL      0.374706
    124 O16         4.9460   -3.1700    0.4340 o         1 MOL     -0.274294
    125 C42         2.9050   -3.2840   -2.3510 c3        1 MOL      0.008883
    126 O17         3.3350   -1.8970   -2.5350 oh        1 MOL     -0.599810
    127 H57         2.0390   -2.1020   -0.2790 hn        1 MOL      0.283599
    128 H58         2.6400   -4.7860   -0.9510 h1        1 MOL      0.078820
    129 H59         1.8260   -3.1920   -2.4440 h1        1 MOL      0.091002
    130 H60         3.2400   -4.0330   -3.0580 h1        1 MOL      0.091002
    131 H61         2.6630   -1.3460   -2.1310 ho        1 MOL      0.400294
    132 N12         5.3190   -4.7540   -1.1070 n         1 MOL     -0.395118
    133 C43         6.7730   -4.7740   -0.9740 c3        1 MOL      0.171094
    134 C44         7.4690   -3.3620   -1.2990 c         1 MOL      0.408393
    135 O18         8.3330   -2.8760   -0.5750 o         1 MOL     -0.518364
    136 C45         7.3590   -5.8070   -1.9050 c3        1 MOL     -0.364769
    137 H62         5.0140   -5.2210   -1.9510 hn        1 MOL      0.278213
    138 H63         6.9890   -5.0560    0.0550 h1        1 MOL      0.082987
    139 H64         8.4300   -5.8450   -1.7310 hc        1 MOL      0.105892
    140 H65         6.7990   -6.6970   -1.6200 hc        1 MOL      0.105892
    141 H66         7.2250   -5.5000   -2.9390 hc        1 MOL      0.105892
    142 N13         6.9690   -2.7000   -2.3000 n         1 MOL     -0.286652
    143 C46         7.3580   -1.3460   -2.7100 c3        1 MOL      0.048225
    144 C47         6.8340   -0.3300   -1.7020 c         1 MOL      0.418079
    145 O19         7.3350    0.8350   -1.7440 o         1 MOL     -0.547468
    146 C48         6.7870   -1.1440   -4.1180 c3        1 MOL     -0.249556
    147 H67         6.4060   -3.1710   -2.9960 hn        1 MOL      0.263279
    148 H68         8.4350   -1.1950   -2.6950 h1        1 MOL      0.102544
    149 H69         6.8830   -2.0310   -4.7380 hc        1 MOL      0.077386
    150 H70         5.7460   -0.8150   -4.1320 hc        1 MOL      0.077386
    151 H71         7.3540   -0.3000   -4.5240 hc        1 MOL      0.077386
    152 N14         5.8160   -0.6220   -0.8610 n         1 MOL     -0.068856
    153 C49         5.3990    0.2340    0.2420 c3        1 MOL     -0.061994
    154 C50         6.1060   -0.0480    1.6490 c         1 MOL      0.341738
    155 O20         6.6140    0.9020    2.3230 o         1 MOL     -0.517407
    156 C51         3.9140    0.3550    0.3630 c3        1 MOL     -0.027212
    157 C52         3.2730    1.0350   -0.8420 c3        1 MOL     -0.034039
    158 C53         1.7950    0.7440   -0.8910 c         1 MOL      0.656060
    159 O21         0.9920    1.6250   -0.4290 o         1 MOL     -0.730601
    160 O22         1.4290   -0.3520   -1.2990 o         1 MOL     -0.730601
    161 H72         5.2510   -1.4510   -0.9740 hn        1 MOL      0.100646
    162 H73         5.8060    1.2130   -0.0310 h1        1 MOL      0.078609
    163 H74         3.5420    0.9330    1.2050 hc        1 MOL      0.063958
    164 H75         3.4400   -0.6260    0.4180 hc        1 MOL      0.063958
    165 H76         3.7460    0.6520   -1.7480 hc        1 MOL      0.003973
    166 H77         3.5330    2.0910   -0.9230 hc        1 MOL      0.003973
    167 N15         6.4280   -1.3730    1.8420 n         1 MOL     -0.019800
    168 C54         7.2310   -1.8140    2.9570 c3        1 MOL     -0.205335
    169 H78         6.5800   -2.0740    3.7920 h1        1 MOL      0.087928
    170 H79         7.8120   -2.6880    2.6650 h1        1 MOL      0.087928
    171 H80         7.9050   -1.0140    3.2590 h1        1 MOL      0.087928
    172 H81         6.0400   -2.0290    1.1780 hn        1 MOL      0.011144
    173 Ca1        -1.2080    0.3940   -1.4760 Ca        1 MOL      1.816816
    174 O23        -1.7060    0.1180   -4.3190 oh        1 MOL     -0.875899
    175 H82        -1.9820    1.0380   -4.3230 ho        1 MOL      0.412340
    176 H83        -1.7240   -0.1390   -5.2340 ho        1 MOL      0.412340
    177 O24         0.0090    2.1720   -3.2660 oh        1 MOL     -0.875899
    178 H84        -0.2840    2.6610   -4.0400 ho        1 MOL      0.412340
    179 H85         0.9400    2.0160   -3.4280 ho        1 MOL      0.412340
    180 O25        -1.0310   -2.2370   -2.7600 oh        1 MOL     -0.875899
    181 H86        -0.9370   -3.1640   -2.5800 ho        1 MOL      0.412340
    182 H87        -1.3700   -2.1990   -3.6640 ho        1 MOL      0.412340
@<TRIPOS>BOND
     1    1    2 1   
     2    1    4 1   
     3    1    5 1   
     4    1    6 1   
     5    2    3 2   
     6    2    7 1   
     7    7    8 1   
     8    7   15 1   
     9    8    9 1   
    10    8   11 1   
    11    8   16 1   
    12    9   10 2   
    13    9   19 1   
    14   11   12 1   
    15   11   17 1   
    16   11   18 1   
    17   12   13 1   
    18   12   14 1   
    19   19   20 1   
    20   19   28 1   
    21   20   21 1   
    22   20   23 1   
    23   20   29 1   
    24   21   22 2   
    25   21   41 1   
    26   23   24 1   
    27   23   30 1   
    28   23   31 1   
    29   24   25 1   
    30   24   32 1   
    31   24   33 1   
    32   25   26 1   
    33   25   34 1   
    34   25   35 1   
    35   26   27 1   
    36   26   36 1   
    37   26   37 1   
    38   27   38 1   
    39   27   39 1   
    40   27   40 1   
    41   41   42 1   
    42   41   49 1   
    43   42   43 1   
    44   42   45 1   
    45   42   50 1   
    46   43   44 2   
    47   43   53 1   
    48   45   46 1   
    49   45   51 1   
    50   45   52 1   
    51   46   47 1   
    52   46   48 1   
    53   53   54 1   
    54   53   57 1   
    55   54   55 1   
    56   54   58 1   
    57   54   59 1   
    58   55   56 2   
    59   55   60 1   
    60   60   61 1   
    61   60   68 1   
    62   61   62 1   
    63   61   64 1   
    64   61   69 1   
    65   62   63 2   
    66   62   74 1   
    67   64   65 1   
    68   64   70 1   
    69   64   71 1   
    70   65   66 1   
    71   65   67 2   
    72   66   72 1   
    73   66   73 1   
    74   74   75 1   
    75   74   78 1   
    76   75   76 1   
    77   75   79 1   
    78   75   80 1   
    79   76   77 2   
    80   76   81 1   
    81   81   82 1   
    82   81   93 1   
    83   82   83 1   
    84   82   85 1   
    85   82   94 1   
    86   83   84 2   
    87   83  102 1   
    88   85   86 1   
    89   85   95 1   
    90   85   96 1   
    91   86   87 ar  
    92   86   88 ar  
    93   87   89 ar  
    94   87   97 1   
    95   88   90 ar  
    96   88   98 1   
    97   89   91 ar  
    98   89   99 1   
    99   90   91 ar  
   100   90  100 1   
   101   91   92 1   
   102   92  101 1   
   103  102  103 1   
   104  102  110 1   
   105  103  104 1   
   106  103  106 1   
   107  103  111 1   
   108  104  105 2   
   109  104  121 1   
   110  106  107 1   
   111  106  108 1   
   112  106  112 1   
   113  107  109 1   
   114  107  113 1   
   115  107  114 1   
   116  108  115 1   
   117  108  116 1   
   118  108  117 1   
   119  109  118 1   
   120  109  119 1   
   121  109  120 1   
   122  121  122 1   
   123  121  127 1   
   124  122  123 1   
   125  122  125 1   
   126  122  128 1   
   127  123  124 2   
   128  123  132 1   
   129  125  126 1   
   130  125  129 1   
   131  125  130 1   
   132  126  131 1   
   133  132  133 1   
   134  132  137 1   
   135  133  134 1   
   136  133  136 1   
   137  133  138 1   
   138  134  135 2   
   139  134  142 1   
   140  136  139 1   
   141  136  140 1   
   142  136  141 1   
   143  142  143 1   
   144  142  147 1   
   145  143  144 1   
   146  143  146 1   
   147  143  148 1   
   148  144  145 2   
   149  144  152 1   
   150  146  149 1   
   151  146  150 1   
   152  146  151 1   
   153  152  153 1   
   154  152  161 1   
   155  153  154 1   
   156  153  156 1   
   157  153  162 1   
   158  154  155 2   
   159  154  167 1   
   160  156  157 1   
   161  156  163 1   
   162  156  164 1   
   163  157  158 1   
   164  157  165 1   
   165  157  166 1   
   166  158  159 1   
   167  158  160 1   
   168  167  168 1   
   169  167  172 1   
   170  168  169 1   
   171  168  170 1   
   172  168  171 1   
   173  174  175 1   
   174  174  176 1   
   175  177  178 1   
   176  177  179 1   
   177  180  181 1   
   178  180  182 1   
@<TRIPOS>SUBSTRUCTURE
     1 MOL         1 TEMP              0 ****  ****    0 ROOT
