@<TRIPOS>MOLECULE
MOL
  176   174     1     0     0
SMALL
resp


@<TRIPOS>ATOM
      1 C1          0.4540    3.8610    6.4270 c3        1 MOL     -0.384540
      2 C2          0.4790    3.2880    5.0230 c         1 MOL      0.650164
      3 O1          1.5760    2.9240    4.5440 o         1 MOL     -0.571083
      4 H1          0.9410    4.8360    6.4290 hc        1 MOL      0.100452
      5 H2         -0.5790    3.9700    6.7570 hc        1 MOL      0.100452
      6 H3          0.9830    3.1900    7.1040 hc        1 MOL      0.100452
      7 N1         -0.6400    3.3880    4.3380 n         1 MOL     -0.465497
      8 C3         -0.8540    2.9700    2.9480 c3        1 MOL      0.244168
      9 C4         -1.4730    4.2420    2.2240 c         1 MOL      0.480928
     10 O2         -1.9250    5.2060    2.8910 o         1 MOL     -0.563687
     11 C5         -1.7440    1.6880    2.9540 c3        1 MOL     -0.627664
     12 C6         -1.8170    1.0380    1.5110 c         1 MOL      0.950915
     13 O3         -2.3120   -0.0960    1.3100 o         1 MOL     -0.800344
     14 O4         -1.2190    1.5470    0.5870 o         1 MOL     -0.800344
     15 H4         -1.4640    3.6480    4.8670 hn        1 MOL      0.284336
     16 H5          0.1110    2.7460    2.4770 h1        1 MOL      0.016139
     17 H6         -2.7350    2.0930    3.1870 hc        1 MOL      0.150449
     18 H7         -1.3380    1.0640    3.7520 hc        1 MOL      0.150449
     19 N2         -1.4220    4.3080    0.8960 n         1 MOL     -0.336568
     20 C7         -1.7410    5.4490   -0.0310 c3        1 MOL     -0.036602
     21 C8         -3.0640    5.3090   -0.8210 c         1 MOL      0.529493
     22 O5         -3.3850    6.0930   -1.6470 o         1 MOL     -0.553740
     23 C9         -0.4940    5.6940   -0.9240 c3        1 MOL     -0.041913
     24 C10        -0.2850    4.5070   -1.9870 c3        1 MOL     -0.042992
     25 C11         0.6670    4.9420   -3.0410 c3        1 MOL     -0.150804
     26 C12         1.9970    5.4810   -2.5480 c3        1 MOL      0.201077
     27 N3          2.9310    5.8530   -3.6520 n4        1 MOL     -0.397151
     28 H8         -1.1260    3.4850    0.3900 hn        1 MOL      0.259190
     29 H9         -1.9750    6.3250    0.5710 h1        1 MOL      0.107715
     30 H10         0.4070    5.7560   -0.3020 hc        1 MOL      0.033186
     31 H11        -0.6470    6.6570   -1.4100 hc        1 MOL      0.033186
     32 H12        -1.2840    4.4290   -2.4210 hc        1 MOL      0.082104
     33 H13        -0.0330    3.5470   -1.5280 hc        1 MOL      0.082104
     34 H14         0.1320    5.7140   -3.6030 hc        1 MOL      0.048987
     35 H15         0.9250    4.0730   -3.6440 hc        1 MOL      0.048987
     36 H16         2.4790    4.7230   -1.9380 hx        1 MOL      0.037040
     37 H17         1.7640    6.4030   -2.0020 hx        1 MOL      0.037040
     38 H18         2.4590    6.1640   -4.4950 hn        1 MOL      0.330509
     39 H19         3.5910    6.4980   -3.2360 hn        1 MOL      0.330509
     40 H20         3.4240    5.0470   -4.0070 hn        1 MOL      0.330509
     41 N4         -3.8140    4.2600   -0.6600 n         1 MOL     -0.337853
     42 C13        -4.9400    3.8340   -1.4900 c3        1 MOL     -0.053027
     43 C14        -6.1130    3.1430   -0.7330 c         1 MOL      0.515984
     44 O6         -7.1890    2.9330   -1.2610 o         1 MOL     -0.537921
     45 C15        -4.4860    2.8950   -2.5400 c3        1 MOL      0.021148
     46 C16        -3.7460    1.6210   -2.0970 c         1 MOL      0.636499
     47 O7         -3.8050    1.1880   -0.8870 o         1 MOL     -0.768190
     48 O8         -2.9840    0.9770   -2.9180 o         1 MOL     -0.768190
     49 H21        -3.5610    3.6600    0.1080 hn        1 MOL      0.189586
     50 H22        -5.3390    4.6640   -2.0790 h1        1 MOL      0.120964
     51 H23        -3.7460    3.4870   -3.0740 hc        1 MOL      0.027790
     52 H24        -5.2600    2.7250   -3.2960 hc        1 MOL      0.027790
     53 N5         -5.9250    2.7200    0.4610 n         1 MOL     -0.431117
     54 C17        -6.9370    1.9970    1.3270 c3        1 MOL      0.055707
     55 C18        -7.2470    0.5620    0.9690 c         1 MOL      0.488340
     56 O9         -8.3330    0.0900    1.2560 o         1 MOL     -0.586369
     57 H25        -5.0070    2.6740    0.8770 hn        1 MOL      0.291598
     58 H26        -7.8600    2.5610    1.4290 h1        1 MOL      0.057007
     59 H27        -6.5610    2.0390    2.3450 h1        1 MOL      0.057007
     60 N6         -6.3400   -0.1430    0.3410 n         1 MOL     -0.162569
     61 C19        -6.5850   -1.5060   -0.2710 c3        1 MOL     -0.004117
     62 C20        -6.0500   -2.7280    0.4730 c         1 MOL      0.275593
     63 O10        -6.0340   -3.8380   -0.1090 o         1 MOL     -0.421380
     64 C21        -6.1930   -1.3360   -1.7920 c3        1 MOL     -0.323742
     65 C22        -4.8180   -1.7670   -2.2660 c         1 MOL      0.800605
     66 N7         -4.5370   -1.8270   -3.5330 n         1 MOL     -0.625190
     67 O11        -3.8460   -1.7900   -1.5470 o         1 MOL     -0.583191
     68 H28        -5.4520    0.3080    0.1610 hn        1 MOL      0.180776
     69 H29        -7.6670   -1.5560   -0.2890 h1        1 MOL      0.149226
     70 H30        -6.3810   -0.3150   -2.1190 hc        1 MOL      0.096355
     71 H31        -6.7840   -2.0390   -2.3760 hc        1 MOL      0.096355
     72 H32        -5.2350   -1.6900   -4.2510 hn        1 MOL      0.285055
     73 H33        -3.5770   -1.9620   -3.8180 hn        1 MOL      0.285055
     74 N8         -5.6420   -2.4790    1.7330 n         1 MOL     -0.194033
     75 C23        -5.4890   -3.6300    2.6610 c3        1 MOL     -0.085027
     76 C24        -4.0660   -4.2980    2.7360 c         1 MOL      0.440130
     77 O12        -3.7320   -5.0710    3.6550 o         1 MOL     -0.559897
     78 H34        -5.6130   -1.5250    2.0560 hn        1 MOL      0.212706
     79 H35        -6.1740   -4.4320    2.4030 h1        1 MOL      0.094929
     80 H36        -5.7660   -3.3380    3.6770 h1        1 MOL      0.094929
     81 N9         -3.1290   -3.9100    1.9050 n         1 MOL     -0.114052
     82 C25        -1.7830   -4.3970    1.8640 c3        1 MOL      0.048189
     83 C26        -0.7970   -3.2730    1.3700 c         1 MOL      0.578718
     84 O13        -1.2120   -2.5420    0.4570 o         1 MOL     -0.593969
     85 C27        -1.6660   -5.6220    0.9870 c3        1 MOL     -0.165691
     86 C28        -1.8060   -5.2980   -0.5410 ca        1 MOL      0.105915
     87 C29        -0.7570   -5.2090   -1.4460 ca        1 MOL     -0.207571
     88 C30        -3.1070   -5.0200   -1.0250 ca        1 MOL     -0.207571
     89 C31        -1.0120   -4.8130   -2.8000 ca        1 MOL     -0.161692
     90 C32        -3.4240   -4.7020   -2.3720 ca        1 MOL     -0.161692
     91 C33        -2.3430   -4.4180   -3.2100 ca        1 MOL      0.221636
     92 O14        -2.4880   -3.7960   -4.4740 oh        1 MOL     -0.500734
     93 H37        -3.2460   -3.1060    1.2980 hn        1 MOL      0.126087
     94 H38        -1.6030   -4.5430    2.9190 h1        1 MOL      0.051159
     95 H39        -2.4260   -6.3430    1.2870 hc        1 MOL      0.074079
     96 H40        -0.6790   -6.0520    1.1680 hc        1 MOL      0.074079
     97 H41         0.2490   -5.3310   -1.0650 ha        1 MOL      0.133801
     98 H42        -3.9740   -4.9930   -0.3900 ha        1 MOL      0.133801
     99 H43        -0.1720   -4.7620   -3.4640 ha        1 MOL      0.115649
    100 H44        -4.4140   -4.3820   -2.6590 ha        1 MOL      0.115649
    101 H45        -1.6800   -3.8050   -4.9990 ho        1 MOL      0.358175
    102 N10         0.4180   -3.3140    1.9060 n         1 MOL     -0.549967
    103 C34         1.5950   -2.5940    1.4250 c3        1 MOL      0.107181
    104 C35         2.6960   -3.4940    0.9640 c         1 MOL      0.671130
    105 O15         2.9020   -4.5580    1.5280 o         1 MOL     -0.562459
    106 C36         2.0270   -1.5210    2.4130 c3        1 MOL      0.016143
    107 C37         2.6070   -2.0730    3.6970 c3        1 MOL     -0.077197
    108 C38         1.0390   -0.4450    2.7930 c3        1 MOL     -0.083027
    109 C39         3.4040   -1.0620    4.5710 c3        1 MOL     -0.095386
    110 H46         0.5530   -4.2010    2.3770 hn        1 MOL      0.303705
    111 H47         1.3210   -2.0440    0.5330 h1        1 MOL      0.014633
    112 H48         2.8770   -1.0100    1.9490 hc        1 MOL     -0.084692
    113 H49         3.2860   -2.8980    3.4930 hc        1 MOL      0.023355
    114 H50         1.7450   -2.4080    4.2620 hc        1 MOL      0.023355
    115 H51         0.3190   -0.7930    3.5270 hc        1 MOL      0.069711
    116 H52         1.5720    0.3470    3.3290 hc        1 MOL      0.069711
    117 H53         0.5940   -0.1250    1.8540 hc        1 MOL      0.069711
    118 H54         4.1520   -0.5070    4.0010 hc        1 MOL      0.031341
    119 H55         2.6740   -0.4700    5.1150 hc        1 MOL      0.031341
    120 H56         3.8780   -1.5130    5.4340 hc        1 MOL      0.031341
    121 N11         3.4160   -3.0390   -0.0430 n         1 MOL     -0.529849
    122 C40         4.7890   -3.5020   -0.4580 c3        1 MOL      0.240948
    123 C41         5.9650   -2.5580    0.0900 c         1 MOL      0.268801
    124 O16         5.5090   -1.5190    0.6600 o         1 MOL     -0.294891
    125 C42         4.7860   -3.7280   -2.0300 c3        1 MOL     -0.011503
    126 O17         4.7020   -2.4950   -2.7900 oh        1 MOL     -0.558362
    127 H57         3.1270   -2.1670   -0.4430 hn        1 MOL      0.279549
    128 H58         4.8810   -4.5170   -0.0680 h1        1 MOL      0.024250
    129 H59         3.8650   -4.2840   -2.2140 h1        1 MOL      0.054738
    130 H60         5.6960   -4.2840   -2.2860 h1        1 MOL      0.054738
    131 H61         4.2150   -2.7550   -3.5730 ho        1 MOL      0.408718
    132 N12         7.2330   -2.8530   -0.0870 n         1 MOL     -0.327262
    133 C43         8.3830   -1.9910    0.3190 c3        1 MOL      0.008689
    134 C44         8.3630   -0.5340   -0.2610 c         1 MOL      0.545665
    135 O18         8.7870    0.3930    0.3860 o         1 MOL     -0.517653
    136 C45         9.7190   -2.6900   -0.0530 c3        1 MOL     -0.420803
    137 H62         7.4890   -3.7750   -0.3980 hn        1 MOL      0.288590
    138 H63         8.2250   -1.9580    1.3990 h1        1 MOL      0.121911
    139 H64        10.4480   -1.8840   -0.0260 hc        1 MOL      0.134709
    140 H65         9.9840   -3.4560    0.6800 hc        1 MOL      0.134709
    141 H66         9.8000   -3.1560   -1.0300 hc        1 MOL      0.134709
    142 N13         7.8420   -0.3940   -1.4640 n         1 MOL     -0.386645
    143 C46         7.7680    0.9180   -2.1850 c3        1 MOL      0.085519
    144 C47         6.6440    1.8220   -1.5490 c         1 MOL      0.469800
    145 O19         6.8500    2.9890   -1.4370 o         1 MOL     -0.531889
    146 C48         7.5860    0.6600   -3.6660 c3        1 MOL     -0.233227
    147 H67         7.4580   -1.2170   -1.8960 hn        1 MOL      0.254841
    148 H68         8.6760    1.4930   -1.9810 h1        1 MOL      0.097346
    149 H69         6.6210    0.1840   -3.8530 hc        1 MOL      0.066927
    150 H70         7.5600    1.6040   -4.1950 hc        1 MOL      0.066927
    151 H71         8.2810   -0.0950   -4.0240 hc        1 MOL      0.066927
    152 N14         5.5430    1.2970   -1.0820 n         1 MOL     -0.268725
    153 C49         4.5290    2.0050   -0.2560 c3        1 MOL     -0.151354
    154 C50         5.0370    2.2430    1.1680 c         1 MOL      0.447061
    155 O20         4.8090    3.3280    1.7220 o         1 MOL     -0.522895
    156 C51         3.2490    1.1390   -0.3770 c3        1 MOL      0.035750
    157 C52         2.4870    1.4290   -1.7720 c3        1 MOL     -0.294153
    158 C53         1.1230    0.6710   -1.8400 c         1 MOL      0.830820
    159 O21         0.0890    1.0540   -2.4350 o         1 MOL     -0.757698
    160 O22         1.0220   -0.4120   -1.2420 o         1 MOL     -0.757698
    161 H72         5.3000    0.3240   -1.1860 hn        1 MOL      0.193692
    162 H73         4.3560    2.9420   -0.7970 h1        1 MOL      0.104211
    163 H74         2.6780    1.4130    0.5070 hc        1 MOL      0.073142
    164 H75         3.5840    0.1090   -0.3420 hc        1 MOL      0.073142
    165 H76         3.1070    1.0370   -2.5710 hc        1 MOL      0.049698
    166 H77         2.3900    2.4910   -1.9830 hc        1 MOL      0.049698
    167 N15         5.8640    1.3170    1.6930 n         1 MOL     -0.051004
    168 C54         6.5030    1.4530    3.0180 c3        1 MOL     -0.063435
    169 H78         6.7220    2.5040    3.2090 h1        1 MOL      0.053909
    170 H79         5.8280    1.0780    3.7870 h1        1 MOL      0.053909
    171 H80         7.4310    0.8800    3.0360 h1        1 MOL      0.053909
    172 H81         5.9810    0.4270    1.2280 hn        1 MOL      0.038018
    173 Ca1        -1.5670   -0.4250   -1.0940 Ca        1 MOL      1.804243
    174 O23        -1.2240   -1.2590   -3.7300 oh        1 MOL     -0.896941
    175 H82        -1.3410   -1.7640   -4.5390 ho        1 MOL      0.432474
    176 H83        -1.5030   -0.3680   -3.9620 ho        1 MOL      0.432474
@<TRIPOS>BOND
     1    1    2 1   
     2    1    4 1   
     3    1    5 1   
     4    1    6 1   
     5    2    3 2   
     6    2    7 1   
     7    7    8 1   
     8    7   15 1   
     9    8    9 1   
    10    8   11 1   
    11    8   16 1   
    12    9   10 2   
    13    9   19 1   
    14   11   12 1   
    15   11   17 1   
    16   11   18 1   
    17   12   13 1   
    18   12   14 1   
    19   19   20 1   
    20   19   28 1   
    21   20   21 1   
    22   20   23 1   
    23   20   29 1   
    24   21   22 2   
    25   21   41 1   
    26   23   24 1   
    27   23   30 1   
    28   23   31 1   
    29   24   25 1   
    30   24   32 1   
    31   24   33 1   
    32   25   26 1   
    33   25   34 1   
    34   25   35 1   
    35   26   27 1   
    36   26   36 1   
    37   26   37 1   
    38   27   38 1   
    39   27   39 1   
    40   27   40 1   
    41   41   42 1   
    42   41   49 1   
    43   42   43 1   
    44   42   45 1   
    45   42   50 1   
    46   43   44 2   
    47   43   53 1   
    48   45   46 1   
    49   45   51 1   
    50   45   52 1   
    51   46   47 1   
    52   46   48 1   
    53   53   54 1   
    54   53   57 1   
    55   54   55 1   
    56   54   58 1   
    57   54   59 1   
    58   55   56 2   
    59   55   60 1   
    60   60   61 1   
    61   60   68 1   
    62   61   62 1   
    63   61   64 1   
    64   61   69 1   
    65   62   63 2   
    66   62   74 1   
    67   64   65 1   
    68   64   70 1   
    69   64   71 1   
    70   65   66 1   
    71   65   67 2   
    72   66   72 1   
    73   66   73 1   
    74   74   75 1   
    75   74   78 1   
    76   75   76 1   
    77   75   79 1   
    78   75   80 1   
    79   76   77 2   
    80   76   81 1   
    81   81   82 1   
    82   81   93 1   
    83   82   83 1   
    84   82   85 1   
    85   82   94 1   
    86   83   84 2   
    87   83  102 1   
    88   85   86 1   
    89   85   95 1   
    90   85   96 1   
    91   86   87 ar  
    92   86   88 ar  
    93   87   89 ar  
    94   87   97 1   
    95   88   90 ar  
    96   88   98 1   
    97   89   91 ar  
    98   89   99 1   
    99   90   91 ar  
   100   90  100 1   
   101   91   92 1   
   102   92  101 1   
   103  102  103 1   
   104  102  110 1   
   105  103  104 1   
   106  103  106 1   
   107  103  111 1   
   108  104  105 2   
   109  104  121 1   
   110  106  107 1   
   111  106  108 1   
   112  106  112 1   
   113  107  109 1   
   114  107  113 1   
   115  107  114 1   
   116  108  115 1   
   117  108  116 1   
   118  108  117 1   
   119  109  118 1   
   120  109  119 1   
   121  109  120 1   
   122  121  122 1   
   123  121  127 1   
   124  122  123 1   
   125  122  125 1   
   126  122  128 1   
   127  123  124 2   
   128  123  132 1   
   129  125  126 1   
   130  125  129 1   
   131  125  130 1   
   132  126  131 1   
   133  132  133 1   
   134  132  137 1   
   135  133  134 1   
   136  133  136 1   
   137  133  138 1   
   138  134  135 2   
   139  134  142 1   
   140  136  139 1   
   141  136  140 1   
   142  136  141 1   
   143  142  143 1   
   144  142  147 1   
   145  143  144 1   
   146  143  146 1   
   147  143  148 1   
   148  144  145 2   
   149  144  152 1   
   150  146  149 1   
   151  146  150 1   
   152  146  151 1   
   153  152  153 1   
   154  152  161 1   
   155  153  154 1   
   156  153  156 1   
   157  153  162 1   
   158  154  155 2   
   159  154  167 1   
   160  156  157 1   
   161  156  163 1   
   162  156  164 1   
   163  157  158 1   
   164  157  165 1   
   165  157  166 1   
   166  158  159 1   
   167  158  160 1   
   168  167  168 1   
   169  167  172 1   
   170  168  169 1   
   171  168  170 1   
   172  168  171 1   
   173  174  175 1   
   174  174  176 1   
@<TRIPOS>SUBSTRUCTURE
     1 MOL         1 TEMP              0 ****  ****    0 ROOT
