@<TRIPOS>MOLECULE
MOL
  189   185     1     0     0
SMALL
resp


@<TRIPOS>ATOM
      1 C1          0.1760    2.4090    6.1930 c3        1 MOL     -0.192054
      2 C2         -0.2780    2.1210    4.7750 c         1 MOL      0.787993
      3 O1          0.4900    2.3390    3.8400 o         1 MOL     -0.649221
      4 H1         -0.3460    3.2880    6.5700 hc        1 MOL      0.046515
      5 H2         -0.0510    1.5530    6.8290 hc        1 MOL      0.046515
      6 H3          1.2500    2.5930    6.2010 hc        1 MOL      0.046515
      7 N1         -1.5370    1.8210    4.5260 n         1 MOL     -0.697089
      8 C3         -2.0280    1.8430    3.1390 c3        1 MOL      0.202478
      9 C4         -2.0860    3.2610    2.6010 c         1 MOL      0.551864
     10 O2         -2.7260    4.1600    3.1620 o         1 MOL     -0.570810
     11 C5         -3.3340    1.1190    3.0790 c3        1 MOL     -0.223128
     12 C6         -4.0610    0.8340    1.7760 c         1 MOL      0.743771
     13 O3         -3.4180    1.1440    0.7200 o         1 MOL     -0.700528
     14 O4         -5.2250    0.3050    1.8200 o         1 MOL     -0.700528
     15 H4         -2.1620    1.7090    5.3140 hn        1 MOL      0.348127
     16 H5         -1.3820    1.2300    2.5050 h1        1 MOL      0.000403
     17 H6         -3.9530    1.7540    3.7030 hc        1 MOL      0.061906
     18 H7         -3.2400    0.1950    3.6420 hc        1 MOL      0.061906
     19 N2         -1.5730    3.4870    1.3860 n         1 MOL     -0.185153
     20 C7         -1.6120    4.8370    0.7570 c3        1 MOL     -0.091690
     21 C8         -2.9430    5.1690    0.0610 c         1 MOL      0.593222
     22 O5         -3.3180    6.3250   -0.0130 o         1 MOL     -0.574604
     23 C9         -0.4750    4.9070   -0.2620 c3        1 MOL     -0.132711
     24 C10         0.9610    4.9490    0.4160 c3        1 MOL      0.075188
     25 C11         2.0870    4.8180   -0.5970 c3        1 MOL     -0.003286
     26 C12         2.1610    6.0450   -1.4400 c3        1 MOL      0.113158
     27 N3          3.4230    5.9750   -2.2550 n4        1 MOL     -0.486845
     28 H8         -1.0900    2.7470    0.9060 hn        1 MOL      0.142309
     29 H9         -1.5330    5.6420    1.4850 h1        1 MOL      0.074474
     30 H10        -0.6170    5.8060   -0.8650 hc        1 MOL      0.038711
     31 H11        -0.5270    4.0140   -0.8890 hc        1 MOL      0.038711
     32 H12         0.9700    4.1540    1.1640 hc        1 MOL      0.022152
     33 H13         1.1490    5.8950    0.9300 hc        1 MOL      0.022152
     34 H14         1.9170    3.8940   -1.1530 hc        1 MOL      0.017928
     35 H15         2.9940    4.6770   -0.0040 hc        1 MOL      0.017928
     36 H16         2.2090    6.7590   -0.6110 hx        1 MOL      0.067245
     37 H17         1.2650    6.1810   -2.0550 hx        1 MOL      0.067245
     38 H18         3.5160    6.7490   -2.9040 hn        1 MOL      0.326455
     39 H19         4.2050    6.0130   -1.6220 hn        1 MOL      0.326455
     40 H20         3.4870    5.1940   -2.9070 hn        1 MOL      0.326455
     41 N4         -3.5770    4.1570   -0.5390 n         1 MOL     -0.370929
     42 C13        -4.6210    4.2640   -1.5480 c3        1 MOL      0.005282
     43 C14        -5.9330    3.5260   -1.1610 c         1 MOL      0.452318
     44 O6         -6.8820    3.4670   -1.9420 o         1 MOL     -0.527765
     45 C15        -4.1760    3.9260   -2.9580 c3        1 MOL     -0.030035
     46 C16        -3.5170    2.6030   -3.0820 c         1 MOL      0.714051
     47 O7         -3.4540    1.8310   -2.1200 o         1 MOL     -0.670673
     48 O8         -3.1820    2.3550   -4.2400 o         1 MOL     -0.670673
     49 H21        -3.1840    3.2540   -0.3040 hn        1 MOL      0.187203
     50 H22        -4.9770    5.2950   -1.6320 h1        1 MOL      0.082386
     51 H23        -3.4600    4.6590   -3.3400 hc        1 MOL      0.012669
     52 H24        -5.0390    3.9300   -3.6330 hc        1 MOL      0.012669
     53 N5         -5.9940    2.9820    0.0510 n         1 MOL     -0.244246
     54 C17        -7.0860    2.3940    0.7630 c3        1 MOL     -0.084236
     55 C18        -7.6000    1.1070    0.0630 c         1 MOL      0.561909
     56 O9         -8.7510    0.7630    0.1180 o         1 MOL     -0.554112
     57 H25        -5.1090    2.9610    0.5390 hn        1 MOL      0.184624
     58 H26        -7.9110    3.1030    0.8810 h1        1 MOL      0.079398
     59 H27        -6.7970    2.0230    1.7480 h1        1 MOL      0.079398
     60 N6         -6.7220    0.3160   -0.6480 n         1 MOL     -0.162544
     61 C19        -7.0950   -0.9030   -1.3420 c3        1 MOL     -0.125269
     62 C20        -7.0370   -2.1730   -0.5040 c         1 MOL      0.484591
     63 O10        -7.4650   -3.2610   -0.8940 o         1 MOL     -0.510868
     64 C21        -6.2920   -1.0440   -2.7210 c3        1 MOL     -0.299548
     65 C22        -4.7840   -1.2580   -2.5240 c         1 MOL      0.827478
     66 O11        -4.2830   -1.1070   -1.4220 o         1 MOL     -0.734037
     67 O12        -4.1090   -1.6400   -3.4980 o         1 MOL     -0.734037
     68 H28        -5.7450    0.3750   -0.4100 hn        1 MOL      0.124289
     69 H29        -8.1560   -0.8980   -1.5860 h1        1 MOL      0.142908
     70 H30        -6.3620   -0.1270   -3.3030 hc        1 MOL      0.110960
     71 H31        -6.7670   -1.8670   -3.2690 hc        1 MOL      0.110960
     72 N7         -6.4010   -2.1050    0.7150 n         1 MOL     -0.288641
     73 C23        -6.1910   -3.2400    1.6780 c3        1 MOL     -0.319540
     74 C24        -5.1350   -4.2710    1.2370 c         1 MOL      0.505181
     75 O13        -5.1740   -5.4300    1.6860 o         1 MOL     -0.571914
     76 H32        -5.9130   -1.2500    0.9210 hn        1 MOL      0.290765
     77 H33        -7.1640   -3.7180    1.8000 h1        1 MOL      0.158030
     78 H34        -5.8260   -2.8080    2.5990 h1        1 MOL      0.158030
     79 N8         -4.3010   -3.8600    0.3040 n         1 MOL     -0.154056
     80 C25        -3.1390   -4.5700   -0.2540 c3        1 MOL     -0.149028
     81 C26        -1.8820   -3.7890    0.1430 c         1 MOL      0.609341
     82 O14        -1.8160   -2.6310   -0.2110 o         1 MOL     -0.622108
     83 C27        -3.2680   -4.7500   -1.8170 c3        1 MOL      0.633210
     84 C28        -2.1020   -5.2060   -2.5480 c3        1 MOL     -0.317656
     85 O15        -4.3080   -5.6390   -1.9730 oh        1 MOL     -0.656969
     86 H35        -4.4540   -2.8900    0.0810 hn        1 MOL      0.196295
     87 H36        -2.9910   -5.5490    0.1990 h1        1 MOL      0.074027
     88 H37        -3.6670   -3.8330   -2.2600 h1        1 MOL     -0.053154
     89 H38        -5.0420   -5.0540   -2.1570 ho        1 MOL      0.377858
     90 H39        -1.6930   -6.1270   -2.1270 hc        1 MOL      0.060277
     91 H40        -2.4300   -5.4880   -3.5530 hc        1 MOL      0.060277
     92 H41        -1.3680   -4.4100   -2.5990 hc        1 MOL      0.060277
     93 N9         -0.8850   -4.3520    0.8420 n         1 MOL     -0.577783
     94 C29         0.2650   -3.5130    1.3230 c3        1 MOL      0.062493
     95 C30         1.4470   -3.9900    0.5220 c         1 MOL      0.424442
     96 O16         1.7100   -5.2220    0.5040 o         1 MOL     -0.537603
     97 C31         0.4170   -3.6160    2.8390 c3        1 MOL      0.186022
     98 C32        -0.8700   -3.3920    3.6410 c3        1 MOL     -0.006578
     99 C33         1.3990   -2.5390    3.2860 c3        1 MOL     -0.695083
    100 C34        -1.5520   -2.0800    3.3050 c3        1 MOL     -0.239209
    101 H42        -0.8580   -5.2960    1.1890 hn        1 MOL      0.332982
    102 H43         0.0830   -2.4860    1.0280 h1        1 MOL      0.090273
    103 H44         0.8280   -4.5570    3.1870 hc        1 MOL      0.013325
    104 H45        -0.6320   -3.4010    4.6990 hc        1 MOL      0.027395
    105 H46        -1.4700   -4.2960    3.4940 hc        1 MOL      0.027395
    106 H47         2.3950   -2.8900    3.0450 hc        1 MOL      0.163467
    107 H48         1.0780   -1.5220    3.0690 hc        1 MOL      0.163467
    108 H49         1.5420   -2.4290    4.3650 hc        1 MOL      0.163467
    109 H50        -2.4760   -1.9760    3.8720 hc        1 MOL      0.066147
    110 H51        -0.9190   -1.2520    3.6170 hc        1 MOL      0.066147
    111 H52        -1.8850   -1.9870    2.2810 hc        1 MOL      0.066147
    112 N10         2.2520   -3.0220   -0.0350 n         1 MOL     -0.018342
    113 C35         3.1960   -3.2860   -1.0360 c3        1 MOL     -0.050516
    114 C36         4.6000   -3.1540   -0.4290 c         1 MOL      0.336832
    115 O17         4.6780   -2.6340    0.6360 o         1 MOL     -0.370217
    116 C37         3.0360   -2.3670   -2.2320 c3        1 MOL      0.192644
    117 C38         1.6880   -2.4840   -2.9360 c3        1 MOL     -0.596525
    118 O18         3.1090   -0.9520   -1.9300 oh        1 MOL     -0.561397
    119 H53         2.0790   -2.0750    0.2570 hn        1 MOL      0.157658
    120 H54         3.2480   -4.3540   -1.2400 h1        1 MOL      0.068667
    121 H55         3.8180   -2.5490   -2.9730 h1        1 MOL      0.057233
    122 H56         2.2670   -0.7050   -1.5430 ho        1 MOL      0.348038
    123 H57         1.3710   -3.5260   -3.0020 hc        1 MOL      0.170309
    124 H58         0.8820   -1.9820   -2.3990 hc        1 MOL      0.170309
    125 H59         1.7640   -2.0790   -3.9450 hc        1 MOL      0.170309
    126 N11         5.7290   -3.5180   -1.0730 n         1 MOL     -0.221597
    127 C39         7.1640   -3.2830   -0.6390 c3        1 MOL     -0.188427
    128 C40         7.3150   -1.8100   -0.2800 c         1 MOL      0.524768
    129 O19         7.7710   -1.5910    0.8540 o         1 MOL     -0.519579
    130 C41         8.1450   -3.5320   -1.8010 c3        1 MOL      0.286603
    131 C42         8.3050   -5.0230   -2.0000 c3        1 MOL     -0.220764
    132 O20         7.6910   -2.8790   -2.9580 oh        1 MOL     -0.665195
    133 H60         5.6370   -3.9500   -1.9800 hn        1 MOL      0.238612
    134 H61         7.3730   -3.7980    0.2940 h1        1 MOL      0.160959
    135 H62         9.1120   -3.0800   -1.5710 h1        1 MOL      0.038096
    136 H63         8.3590   -2.8530   -3.6560 ho        1 MOL      0.429414
    137 H64         8.9620   -5.2690   -2.8320 hc        1 MOL      0.067153
    138 H65         8.8440   -5.3940   -1.1260 hc        1 MOL      0.067153
    139 H66         7.3210   -5.5080   -1.9500 hc        1 MOL      0.067153
    140 N12         6.8910   -0.7910   -1.0750 n         1 MOL     -0.397742
    141 C43         7.0540    0.5900   -0.6950 c3        1 MOL     -0.046176
    142 C44         6.2490    0.9640    0.4810 c         1 MOL      0.422736
    143 O21         6.6670    1.8400    1.2810 o         1 MOL     -0.497870
    144 C45         6.7820    1.5430   -1.9280 c3        1 MOL     -0.053288
    145 C46         7.0860    3.0100   -1.8680 c3        1 MOL      0.020962
    146 C47         8.4550    3.3600   -1.2420 c3        1 MOL     -0.022412
    147 C48         8.6770    4.9220   -1.0900 c3        1 MOL      0.099866
    148 N13         9.2470    5.4730   -2.3850 n4        1 MOL     -0.575569
    149 H67         6.5090   -0.9920   -1.9850 hn        1 MOL      0.276049
    150 H68         8.1080    0.6640   -0.4290 h1        1 MOL      0.093395
    151 H69         5.7030    1.4540   -2.1060 hc        1 MOL      0.045245
    152 H70         7.2110    1.0480   -2.8000 hc        1 MOL      0.045245
    153 H71         6.3660    3.4430   -1.1750 hc        1 MOL     -0.041892
    154 H72         7.0090    3.4930   -2.8430 hc        1 MOL     -0.041892
    155 H73         9.2090    2.8660   -1.8550 hc        1 MOL      0.047750
    156 H74         8.5110    3.0570   -0.1970 hc        1 MOL      0.047750
    157 H75         9.4090    5.2250   -0.3450 hx        1 MOL      0.078811
    158 H76         7.7210    5.3310   -0.7790 hx        1 MOL      0.078811
    159 H77         8.8510    4.9580   -3.1640 hn        1 MOL      0.340228
    160 H78         9.1040    6.4510   -2.5360 hn        1 MOL      0.340228
    161 H79        10.2440    5.3500   -2.3470 hn        1 MOL      0.340228
    162 N14         5.1130    0.3350    0.7350 n         1 MOL     -0.131235
    163 C49         4.2360    0.6560    1.9030 c3        1 MOL     -0.239985
    164 C50         4.6700    0.0250    3.1980 c         1 MOL      0.461232
    165 O22         4.7120    0.6250    4.2560 o         1 MOL     -0.517808
    166 C51         2.8350    0.2900    1.5360 c3        1 MOL      0.295520
    167 C52         2.1380    1.1720    0.4310 c3        1 MOL     -0.049430
    168 C53         0.7550    0.7170    0.0420 c         1 MOL      0.926779
    169 O23         0.6410   -0.4600   -0.4330 o         1 MOL     -0.768066
    170 O24        -0.2630    1.4060    0.0830 o         1 MOL     -0.768066
    171 H80         4.8010   -0.3990    0.1210 hn        1 MOL      0.199737
    172 H81         4.2900    1.7190    2.1210 h1        1 MOL      0.118613
    173 H82         2.1750    0.3250    2.4040 hc        1 MOL     -0.039356
    174 H83         2.8330   -0.7640    1.2720 hc        1 MOL     -0.039356
    175 H84         2.6770    1.0340   -0.5080 hc        1 MOL     -0.073284
    176 H85         2.1150    2.2450    0.6430 hc        1 MOL     -0.073284
    177 N15         5.2310   -1.2040    3.1780 n         1 MOL     -0.034024
    178 C54         5.9840   -1.7810    4.2340 c3        1 MOL     -0.672033
    179 H86         6.1050   -2.8490    4.0520 h1        1 MOL      0.205593
    180 H87         6.9650   -1.3080    4.2810 h1        1 MOL      0.205593
    181 H88         5.4600   -1.6310    5.1780 h1        1 MOL      0.205593
    182 H89         5.2840   -1.7020    2.2980 hn        1 MOL      0.178882
    183 Ca1        -2.0060   -0.0010   -1.2130 Ca        1 MOL      1.748446
    184 O25        -0.5460    1.0690   -3.3370 oh        1 MOL     -0.909756
    185 H90         0.4150    1.0840   -3.4240 ho        1 MOL      0.419492
    186 H91        -0.8610    1.5870   -4.0810 ho        1 MOL      0.419492
    187 O26        -1.6020   -1.9170   -3.0490 oh        1 MOL     -0.909756
    188 H92        -2.5410   -2.0340   -3.1820 ho        1 MOL      0.419492
    189 H93        -1.2220   -1.9850   -3.9270 ho        1 MOL      0.419492
@<TRIPOS>BOND
     1    1    2 1   
     2    1    4 1   
     3    1    5 1   
     4    1    6 1   
     5    2    3 2   
     6    2    7 1   
     7    7    8 1   
     8    7   15 1   
     9    8    9 1   
    10    8   11 1   
    11    8   16 1   
    12    9   10 2   
    13    9   19 1   
    14   11   12 1   
    15   11   17 1   
    16   11   18 1   
    17   12   13 1   
    18   12   14 1   
    19   19   20 1   
    20   19   28 1   
    21   20   21 1   
    22   20   23 1   
    23   20   29 1   
    24   21   22 2   
    25   21   41 1   
    26   23   24 1   
    27   23   30 1   
    28   23   31 1   
    29   24   25 1   
    30   24   32 1   
    31   24   33 1   
    32   25   26 1   
    33   25   34 1   
    34   25   35 1   
    35   26   27 1   
    36   26   36 1   
    37   26   37 1   
    38   27   38 1   
    39   27   39 1   
    40   27   40 1   
    41   41   42 1   
    42   41   49 1   
    43   42   43 1   
    44   42   45 1   
    45   42   50 1   
    46   43   44 2   
    47   43   53 1   
    48   45   46 1   
    49   45   51 1   
    50   45   52 1   
    51   46   47 1   
    52   46   48 1   
    53   53   54 1   
    54   53   57 1   
    55   54   55 1   
    56   54   58 1   
    57   54   59 1   
    58   55   56 2   
    59   55   60 1   
    60   60   61 1   
    61   60   68 1   
    62   61   62 1   
    63   61   64 1   
    64   61   69 1   
    65   62   63 2   
    66   62   72 1   
    67   64   65 1   
    68   64   70 1   
    69   64   71 1   
    70   65   66 1   
    71   65   67 1   
    72   72   73 1   
    73   72   76 1   
    74   73   74 1   
    75   73   77 1   
    76   73   78 1   
    77   74   75 2   
    78   74   79 1   
    79   79   80 1   
    80   79   86 1   
    81   80   81 1   
    82   80   83 1   
    83   80   87 1   
    84   81   82 2   
    85   81   93 1   
    86   83   84 1   
    87   83   85 1   
    88   83   88 1   
    89   84   90 1   
    90   84   91 1   
    91   84   92 1   
    92   85   89 1   
    93   93   94 1   
    94   93  101 1   
    95   94   95 1   
    96   94   97 1   
    97   94  102 1   
    98   95   96 2   
    99   95  112 1   
   100   97   98 1   
   101   97   99 1   
   102   97  103 1   
   103   98  100 1   
   104   98  104 1   
   105   98  105 1   
   106   99  106 1   
   107   99  107 1   
   108   99  108 1   
   109  100  109 1   
   110  100  110 1   
   111  100  111 1   
   112  112  113 1   
   113  112  119 1   
   114  113  114 1   
   115  113  116 1   
   116  113  120 1   
   117  114  115 2   
   118  114  126 1   
   119  116  117 1   
   120  116  118 1   
   121  116  121 1   
   122  117  123 1   
   123  117  124 1   
   124  117  125 1   
   125  118  122 1   
   126  126  127 1   
   127  126  133 1   
   128  127  128 1   
   129  127  130 1   
   130  127  134 1   
   131  128  129 2   
   132  128  140 1   
   133  130  131 1   
   134  130  132 1   
   135  130  135 1   
   136  131  137 1   
   137  131  138 1   
   138  131  139 1   
   139  132  136 1   
   140  140  141 1   
   141  140  149 1   
   142  141  142 1   
   143  141  144 1   
   144  141  150 1   
   145  142  143 2   
   146  142  162 1   
   147  144  145 1   
   148  144  151 1   
   149  144  152 1   
   150  145  146 1   
   151  145  153 1   
   152  145  154 1   
   153  146  147 1   
   154  146  155 1   
   155  146  156 1   
   156  147  148 1   
   157  147  157 1   
   158  147  158 1   
   159  148  159 1   
   160  148  160 1   
   161  148  161 1   
   162  162  163 1   
   163  162  171 1   
   164  163  164 1   
   165  163  166 1   
   166  163  172 1   
   167  164  165 2   
   168  164  177 1   
   169  166  167 1   
   170  166  173 1   
   171  166  174 1   
   172  167  168 1   
   173  167  175 1   
   174  167  176 1   
   175  168  169 1   
   176  168  170 1   
   177  177  178 1   
   178  177  182 1   
   179  178  179 1   
   180  178  180 1   
   181  178  181 1   
   182  184  185 1   
   183  184  186 1   
   184  187  188 1   
   185  187  189 1   
@<TRIPOS>SUBSTRUCTURE
     1 MOL         1 TEMP              0 ****  ****    0 ROOT
