@<TRIPOS>MOLECULE
MOL
  182   178     1     0     0
SMALL
resp


@<TRIPOS>ATOM
      1 C1          2.2350    1.1070    6.0110 c3        1 MOL     -0.308009
      2 C2          1.7280    1.1120    4.5370 c         1 MOL      0.795328
      3 O1          2.5130    0.9000    3.5970 o         1 MOL     -0.653569
      4 H1          2.0590    0.1260    6.4520 hc        1 MOL      0.082029
      5 H2          3.3020    1.3270    6.0300 hc        1 MOL      0.082029
      6 H3          1.6980    1.8640    6.5830 hc        1 MOL      0.082029
      7 N1          0.4580    1.4340    4.3250 n         1 MOL     -0.675077
      8 C3         -0.1310    1.6840    2.9570 c3        1 MOL      0.100337
      9 C4          0.3140    3.0930    2.5680 c         1 MOL      0.624773
     10 O2          0.1420    4.0150    3.3350 o         1 MOL     -0.555465
     11 C5         -1.5760    1.5290    3.0220 c3        1 MOL     -0.018277
     12 C6         -2.2820    1.4280    1.6670 c         1 MOL      0.581063
     13 O3         -3.5440    1.1400    1.6540 o         1 MOL     -0.684953
     14 O4         -1.6730    1.8280    0.6560 o         1 MOL     -0.684953
     15 H4         -0.1280    1.5490    5.1400 hn        1 MOL      0.340951
     16 H5          0.2150    1.0020    2.1800 h1        1 MOL      0.075034
     17 H6         -1.9410    2.4630    3.4380 hc        1 MOL      0.026362
     18 H7         -1.8640    0.7020    3.6740 hc        1 MOL      0.026362
     19 N2          0.8810    3.3030    1.3390 n         1 MOL     -0.286627
     20 C7          1.4570    4.5490    0.8200 c3        1 MOL     -0.193844
     21 C8          0.4070    5.3750    0.0340 c         1 MOL      0.463800
     22 O5          0.4850    6.6240    0.0760 o         1 MOL     -0.589503
     23 C9          2.8100    4.2860    0.1120 c3        1 MOL      0.258017
     24 C10         3.7660    5.4290    0.2050 c3        1 MOL      0.184134
     25 C11         5.2330    5.0270    0.2100 c3        1 MOL     -0.278504
     26 C12         6.1460    6.1730   -0.1140 c3        1 MOL     -0.001591
     27 N3          6.1110    6.2340   -1.5690 n4        1 MOL     -0.472065
     28 H8          0.8950    2.5130    0.7160 hn        1 MOL      0.049378
     29 H9          1.6470    5.1730    1.7020 h1        1 MOL      0.150669
     30 H10         2.6060    4.0520   -0.9330 hc        1 MOL     -0.056149
     31 H11         3.3480    3.4700    0.5780 hc        1 MOL     -0.056149
     32 H12         3.4800    6.0770    1.0370 hc        1 MOL     -0.055091
     33 H13         3.8340    5.9850   -0.7300 hc        1 MOL     -0.055091
     34 H14         5.3480    4.1500   -0.4190 hc        1 MOL      0.126591
     35 H15         5.3470    4.7060    1.2480 hc        1 MOL      0.126591
     36 H16         7.1370    5.9430    0.2580 hx        1 MOL      0.127616
     37 H17         5.8570    7.1020    0.3830 hx        1 MOL      0.127616
     38 H18         5.1830    6.5240   -1.8500 hn        1 MOL      0.361771
     39 H19         6.7830    6.8960   -1.9300 hn        1 MOL      0.361771
     40 H20         6.2360    5.2880   -1.9080 hn        1 MOL      0.361771
     41 N4         -0.6440    4.7950   -0.5480 n         1 MOL     -0.198776
     42 C13        -1.7460    5.5330   -1.0900 c3        1 MOL      0.121767
     43 C14        -3.0510    5.2620   -0.3350 c         1 MOL      0.391931
     44 O6         -3.9880    6.0550   -0.5710 o         1 MOL     -0.515187
     45 C15        -1.7910    5.3080   -2.5820 c3        1 MOL     -0.338621
     46 C16        -1.9910    3.9020   -3.0570 c         1 MOL      0.859152
     47 O7         -2.0240    2.9460   -2.2330 o         1 MOL     -0.750475
     48 O8         -1.7180    3.6670   -4.2860 o         1 MOL     -0.750475
     49 H21        -0.7140    3.7860   -0.4570 hn        1 MOL      0.175499
     50 H22        -1.6740    6.6190   -1.0480 h1        1 MOL      0.099791
     51 H23        -0.8060    5.6250   -2.9450 hc        1 MOL      0.080634
     52 H24        -2.6340    5.9290   -2.8710 hc        1 MOL      0.080634
     53 N5         -3.0870    4.3390    0.6200 n         1 MOL     -0.250559
     54 C17        -4.2820    4.0670    1.4520 c3        1 MOL     -0.150841
     55 C18        -5.3950    3.4370    0.6750 c         1 MOL      0.432331
     56 O9         -6.5990    3.6890    0.9390 o         1 MOL     -0.554203
     57 H25        -2.2730    3.7540    0.7150 hn        1 MOL      0.212386
     58 H26        -4.6810    4.9710    1.9090 h1        1 MOL      0.118233
     59 H27        -4.0450    3.3430    2.2270 h1        1 MOL      0.118233
     60 N6         -5.0730    2.7150   -0.3750 n         1 MOL     -0.064938
     61 C19        -6.0370    1.9290   -1.1810 c3        1 MOL     -0.028169
     62 C20        -6.7960    0.8770   -0.3550 c         1 MOL      0.464060
     63 O10        -7.9340    0.6490   -0.7520 o         1 MOL     -0.555782
     64 C21        -5.3950    1.4410   -2.4840 c3        1 MOL     -0.053019
     65 C22        -4.8310    0.0660   -2.4190 c         1 MOL      0.351576
     66 N7         -5.4140   -0.7910   -3.1790 n         1 MOL     -0.638844
     67 O11        -3.8420   -0.1960   -1.7080 o         1 MOL     -0.503826
     68 H28        -4.0850    2.5960   -0.6010 hn        1 MOL      0.059938
     69 H29        -6.7460    2.7190   -1.4390 h1        1 MOL      0.086975
     70 H30        -4.6070    2.1390   -2.7760 hc        1 MOL      0.050528
     71 H31        -6.1570    1.4630   -3.2600 hc        1 MOL      0.050528
     72 H32        -6.3000   -0.4560   -3.5440 hn        1 MOL      0.366410
     73 H33        -5.0360   -1.7270   -3.2300 hn        1 MOL      0.366410
     74 N8         -6.1230    0.3240    0.6340 n         1 MOL     -0.204284
     75 C23        -6.6310   -0.7620    1.5040 c3        1 MOL     -0.061031
     76 C24        -5.7110   -2.0420    1.6140 c         1 MOL      0.380925
     77 O12        -6.1480   -3.0800    2.1950 o         1 MOL     -0.511426
     78 H34        -5.2350    0.7450    0.8830 hn        1 MOL      0.234788
     79 H35        -7.6020   -1.1390    1.1790 h1        1 MOL      0.094068
     80 H36        -6.9740   -0.3700    2.4620 h1        1 MOL      0.094068
     81 N9         -4.4380   -1.9390    1.2410 n         1 MOL     -0.217669
     82 C25        -3.4700   -3.0270    1.1360 c3        1 MOL      0.027082
     83 C26        -2.0180   -2.4290    1.0620 c         1 MOL      0.644747
     84 O13        -1.8480   -1.2520    0.8140 o         1 MOL     -0.588712
     85 C27        -3.7990   -3.7940   -0.1770 c3        1 MOL     -0.055452
     86 C28        -5.1420   -4.4410   -0.3070 ca        1 MOL     -0.023845
     87 C29        -6.1940   -3.8020   -1.0320 ca        1 MOL     -0.142978
     88 C30        -5.4730   -5.6510    0.3280 ca        1 MOL     -0.142978
     89 C31        -7.4690   -4.4000   -1.1420 ca        1 MOL     -0.290785
     90 C32        -6.7010   -6.3230    0.1880 ca        1 MOL     -0.290785
     91 C33        -7.6950   -5.6550   -0.5790 ca        1 MOL      0.434376
     92 O14        -8.8460   -6.2920   -0.8220 oh        1 MOL     -0.539448
     93 H37        -4.0470   -1.0150    1.1570 hn        1 MOL      0.178268
     94 H38        -3.4860   -3.5430    2.1000 h1        1 MOL      0.065655
     95 H39        -3.0630   -4.5860   -0.3090 hc        1 MOL      0.029431
     96 H40        -3.7860   -3.0440   -0.9750 hc        1 MOL      0.029431
     97 H41        -6.1090   -2.7640   -1.3250 ha        1 MOL      0.131989
     98 H42        -4.7790   -6.0280    1.0650 ha        1 MOL      0.131989
     99 H43        -8.2450   -3.9240   -1.7340 ha        1 MOL      0.155073
    100 H44        -6.8820   -7.2390    0.7400 ha        1 MOL      0.155073
    101 H45        -9.0510   -6.9600   -0.1690 ho        1 MOL      0.385954
    102 N10        -1.0390   -3.3160    1.2590 n         1 MOL     -0.585868
    103 C34         0.3780   -2.9400    1.4270 c3        1 MOL      0.033794
    104 C35         1.1400   -3.8680    0.5010 c         1 MOL      0.430397
    105 O15         1.1590   -5.1120    0.6640 o         1 MOL     -0.547073
    106 C36         0.9630   -3.0370    2.8590 c3        1 MOL      0.276872
    107 C37        -0.0600   -2.6040    3.9490 c3        1 MOL      0.126194
    108 C38         2.1760   -2.0810    2.8520 c3        1 MOL     -0.313763
    109 C39         0.3210   -3.2840    5.3110 c3        1 MOL     -0.262370
    110 H46        -1.3280   -4.2580    1.4630 hn        1 MOL      0.302219
    111 H47         0.4710   -1.9030    1.1070 h1        1 MOL      0.048095
    112 H48         1.2510   -4.0640    3.0690 hc        1 MOL     -0.025016
    113 H49        -1.0590   -2.9630    3.7040 hc        1 MOL     -0.020974
    114 H50        -0.0630   -1.5100    4.0270 hc        1 MOL     -0.020974
    115 H51         2.4500   -1.9250    3.8960 hc        1 MOL      0.054739
    116 H52         2.9680   -2.6220    2.3290 hc        1 MOL      0.054739
    117 H53         1.9470   -1.0990    2.4230 hc        1 MOL      0.054739
    118 H54         0.0310   -2.6670    6.1560 hc        1 MOL      0.057985
    119 H55        -0.2660   -4.2020    5.4270 hc        1 MOL      0.057985
    120 H56         1.3770   -3.5100    5.3930 hc        1 MOL      0.057985
    121 N11         1.8350   -3.2720   -0.4350 n         1 MOL     -0.129647
    122 C40         2.7720   -4.0130   -1.2970 c3        1 MOL     -0.126324
    123 C41         4.2010   -3.9920   -0.7690 c         1 MOL      0.520398
    124 O16         4.4950   -3.3190    0.2400 o         1 MOL     -0.380730
    125 C42         2.7440   -3.3210   -2.6740 c3        1 MOL      0.005706
    126 O17         3.0680   -1.9920   -2.5680 oh        1 MOL     -0.490435
    127 H57         1.7370   -2.2750   -0.5750 hn        1 MOL      0.145299
    128 H58         2.5130   -5.0600   -1.4450 h1        1 MOL      0.088053
    129 H59         1.7920   -3.4760   -3.1870 h1        1 MOL      0.063933
    130 H60         3.4140   -3.8740   -3.3280 h1        1 MOL      0.063933
    131 H61         2.3000   -1.4500   -2.3850 ho        1 MOL      0.320919
    132 N12         5.0770   -4.8050   -1.4420 n         1 MOL     -0.510977
    133 C43         6.5040   -4.8940   -1.0830 c3        1 MOL      0.192277
    134 C44         7.1280   -3.5210   -1.2210 c         1 MOL      0.324377
    135 O18         7.8700   -3.1420   -0.3070 o         1 MOL     -0.467841
    136 C45         7.2520   -6.0250   -1.8130 c3        1 MOL     -0.313560
    137 H62         4.7180   -5.3660   -2.1980 hn        1 MOL      0.297026
    138 H63         6.4440   -5.2000   -0.0370 h1        1 MOL      0.080509
    139 H64         6.6070   -6.8960   -1.8170 hc        1 MOL      0.101194
    140 H65         7.5880   -5.8510   -2.8360 hc        1 MOL      0.101194
    141 H66         8.0570   -6.2880   -1.1190 hc        1 MOL      0.101194
    142 N13         6.9320   -2.8190   -2.3160 n         1 MOL     -0.227765
    143 C46         7.3280   -1.4890   -2.5650 c3        1 MOL      0.119554
    144 C47         7.0650   -0.5000   -1.3680 c         1 MOL      0.261021
    145 O19         8.0420    0.1470   -0.9770 o         1 MOL     -0.503847
    146 C48         6.6700   -1.0940   -3.9240 c3        1 MOL     -0.234819
    147 H67         6.4840   -3.2620   -3.1060 hn        1 MOL      0.222307
    148 H68         8.3790   -1.4520   -2.8400 h1        1 MOL      0.063586
    149 H69         5.6000   -1.2710   -3.8450 hc        1 MOL      0.063080
    150 H70         6.6870   -0.0250   -4.1340 hc        1 MOL      0.063080
    151 H71         7.1560   -1.6910   -4.6910 hc        1 MOL      0.063080
    152 N14         5.8940   -0.3870   -0.8710 n         1 MOL      0.075153
    153 C49         5.4940    0.4660    0.2800 c3        1 MOL     -0.243116
    154 C50         6.0780    0.0330    1.6110 c         1 MOL      0.497234
    155 O20         6.5410    0.8290    2.4320 o         1 MOL     -0.541095
    156 C51         3.8990    0.5370    0.3510 c3        1 MOL     -0.140285
    157 C52         3.2560    0.9950   -1.0130 c3        1 MOL      0.048447
    158 C53         1.7400    0.8610   -0.9090 c         1 MOL      0.735533
    159 O21         0.9420    1.7750   -1.1940 o         1 MOL     -0.692551
    160 O22         1.1920   -0.2240   -0.7660 o         1 MOL     -0.692551
    161 H72         5.1760   -0.9480   -1.3120 hn        1 MOL      0.116253
    162 H73         5.8850    1.4630    0.0620 h1        1 MOL      0.065246
    163 H74         3.5400    1.2090    1.1240 hc        1 MOL      0.135033
    164 H75         3.5490   -0.4700    0.6030 hc        1 MOL      0.135033
    165 H76         3.6730    0.4050   -1.8360 hc        1 MOL     -0.039966
    166 H77         3.6560    1.9540   -1.3450 hc        1 MOL     -0.039966
    167 N15         6.3260   -1.2840    1.6940 n         1 MOL     -0.015239
    168 C54         6.8970   -1.8340    2.9560 c3        1 MOL     -0.344355
    169 H78         6.4390   -2.8000    3.1700 h1        1 MOL      0.128711
    170 H79         7.9740   -1.9610    2.8440 h1        1 MOL      0.128711
    171 H80         6.6950   -1.1470    3.7770 h1        1 MOL      0.128711
    172 H81         6.0600   -1.9100    0.9510 hn        1 MOL      0.056617
    173 Ca1        -1.3380    0.3230   -1.4970 Ca        1 MOL      1.763584
    174 O23        -1.4100   -2.1230   -2.4410 oh        1 MOL     -0.795822
    175 H82        -1.0770   -3.0010   -2.3000 ho        1 MOL      0.389820
    176 H83        -1.5920   -2.0800   -3.3860 ho        1 MOL      0.389820
    177 O24         0.4700   -0.0220   -3.6620 oh        1 MOL     -0.795822
    178 H84         0.9980    0.7290   -3.9480 ho        1 MOL      0.389820
    179 H85         0.6870   -0.7180   -4.2850 ho        1 MOL      0.389820
    180 O25        -2.1900    0.8520   -4.1670 oh        1 MOL     -0.795822
    181 H86        -1.9630    0.6790   -5.0860 ho        1 MOL      0.389820
    182 H87        -1.9480    1.7630   -4.0300 ho        1 MOL      0.389820
@<TRIPOS>BOND
     1    1    2 1   
     2    1    4 1   
     3    1    5 1   
     4    1    6 1   
     5    2    3 2   
     6    2    7 1   
     7    7    8 1   
     8    7   15 1   
     9    8    9 1   
    10    8   11 1   
    11    8   16 1   
    12    9   10 2   
    13    9   19 1   
    14   11   12 1   
    15   11   17 1   
    16   11   18 1   
    17   12   13 1   
    18   12   14 1   
    19   19   20 1   
    20   19   28 1   
    21   20   21 1   
    22   20   23 1   
    23   20   29 1   
    24   21   22 2   
    25   21   41 1   
    26   23   24 1   
    27   23   30 1   
    28   23   31 1   
    29   24   25 1   
    30   24   32 1   
    31   24   33 1   
    32   25   26 1   
    33   25   34 1   
    34   25   35 1   
    35   26   27 1   
    36   26   36 1   
    37   26   37 1   
    38   27   38 1   
    39   27   39 1   
    40   27   40 1   
    41   41   42 1   
    42   41   49 1   
    43   42   43 1   
    44   42   45 1   
    45   42   50 1   
    46   43   44 2   
    47   43   53 1   
    48   45   46 1   
    49   45   51 1   
    50   45   52 1   
    51   46   47 1   
    52   46   48 1   
    53   53   54 1   
    54   53   57 1   
    55   54   55 1   
    56   54   58 1   
    57   54   59 1   
    58   55   56 2   
    59   55   60 1   
    60   60   61 1   
    61   60   68 1   
    62   61   62 1   
    63   61   64 1   
    64   61   69 1   
    65   62   63 2   
    66   62   74 1   
    67   64   65 1   
    68   64   70 1   
    69   64   71 1   
    70   65   66 1   
    71   65   67 2   
    72   66   72 1   
    73   66   73 1   
    74   74   75 1   
    75   74   78 1   
    76   75   76 1   
    77   75   79 1   
    78   75   80 1   
    79   76   77 2   
    80   76   81 1   
    81   81   82 1   
    82   81   93 1   
    83   82   83 1   
    84   82   85 1   
    85   82   94 1   
    86   83   84 2   
    87   83  102 1   
    88   85   86 1   
    89   85   95 1   
    90   85   96 1   
    91   86   87 ar  
    92   86   88 ar  
    93   87   89 ar  
    94   87   97 1   
    95   88   90 ar  
    96   88   98 1   
    97   89   91 ar  
    98   89   99 1   
    99   90   91 ar  
   100   90  100 1   
   101   91   92 1   
   102   92  101 1   
   103  102  103 1   
   104  102  110 1   
   105  103  104 1   
   106  103  106 1   
   107  103  111 1   
   108  104  105 2   
   109  104  121 1   
   110  106  107 1   
   111  106  108 1   
   112  106  112 1   
   113  107  109 1   
   114  107  113 1   
   115  107  114 1   
   116  108  115 1   
   117  108  116 1   
   118  108  117 1   
   119  109  118 1   
   120  109  119 1   
   121  109  120 1   
   122  121  122 1   
   123  121  127 1   
   124  122  123 1   
   125  122  125 1   
   126  122  128 1   
   127  123  124 2   
   128  123  132 1   
   129  125  126 1   
   130  125  129 1   
   131  125  130 1   
   132  126  131 1   
   133  132  133 1   
   134  132  137 1   
   135  133  134 1   
   136  133  136 1   
   137  133  138 1   
   138  134  135 2   
   139  134  142 1   
   140  136  139 1   
   141  136  140 1   
   142  136  141 1   
   143  142  143 1   
   144  142  147 1   
   145  143  144 1   
   146  143  146 1   
   147  143  148 1   
   148  144  145 2   
   149  144  152 1   
   150  146  149 1   
   151  146  150 1   
   152  146  151 1   
   153  152  153 1   
   154  152  161 1   
   155  153  154 1   
   156  153  156 1   
   157  153  162 1   
   158  154  155 2   
   159  154  167 1   
   160  156  157 1   
   161  156  163 1   
   162  156  164 1   
   163  157  158 1   
   164  157  165 1   
   165  157  166 1   
   166  158  159 1   
   167  158  160 1   
   168  167  168 1   
   169  167  172 1   
   170  168  169 1   
   171  168  170 1   
   172  168  171 1   
   173  174  175 1   
   174  174  176 1   
   175  177  178 1   
   176  177  179 1   
   177  180  181 1   
   178  180  182 1   
@<TRIPOS>SUBSTRUCTURE
     1 MOL         1 TEMP              0 ****  ****    0 ROOT
