@<TRIPOS>MOLECULE
MOL
  176   174     1     0     0
SMALL
resp


@<TRIPOS>ATOM
      1 C1          0.1870    3.8750    6.4490 c3        1 MOL     -0.283736
      2 C2          0.1880    3.3030    5.0620 c         1 MOL      0.709233
      3 O1          1.2420    3.0480    4.4360 o         1 MOL     -0.574136
      4 H1          0.3000    4.9580    6.3950 hc        1 MOL      0.072591
      5 H2         -0.7550    3.6330    6.9410 hc        1 MOL      0.072591
      6 H3          1.0150    3.4520    7.0170 hc        1 MOL      0.072591
      7 N1         -1.0440    3.0330    4.5460 n         1 MOL     -0.605921
      8 C3         -1.3450    2.6710    3.1210 c3        1 MOL      0.031822
      9 C4         -1.5020    3.9230    2.2850 c         1 MOL      0.810715
     10 O2         -2.1510    4.8680    2.6850 o         1 MOL     -0.614372
     11 C5         -2.5870    1.7300    3.1890 c3        1 MOL     -0.195283
     12 C6         -2.8340    1.1230    1.8250 c         1 MOL      0.878547
     13 O3         -2.9060    1.9260    0.8220 o         1 MOL     -0.827532
     14 O4         -2.7750   -0.1330    1.7450 o         1 MOL     -0.827532
     15 H4         -1.8210    3.2340    5.1530 hn        1 MOL      0.323591
     16 H5         -0.4880    2.1240    2.7420 h1        1 MOL      0.023214
     17 H6         -3.4780    2.2470    3.5400 hc        1 MOL      0.056102
     18 H7         -2.4110    0.9680    3.9510 hc        1 MOL      0.056102
     19 N2         -0.8280    3.9810    1.1360 n         1 MOL     -0.732067
     20 C7         -0.9010    5.1310    0.1680 c3        1 MOL      0.037662
     21 C8         -2.0710    5.1730   -0.8020 c         1 MOL      0.572431
     22 O5         -2.3310    6.2650   -1.3000 o         1 MOL     -0.590697
     23 C9          0.4790    5.1180   -0.5110 c3        1 MOL      0.196891
     24 C10         0.7090    6.4300   -1.3110 c3        1 MOL     -0.213219
     25 C11         2.0230    6.3120   -2.1030 c3        1 MOL      0.017155
     26 C12         2.4160    7.6670   -2.6110 c3        1 MOL      0.249649
     27 N3          3.6090    7.5340   -3.5250 n4        1 MOL     -0.482796
     28 H8         -0.5640    3.0690    0.7940 hn        1 MOL      0.376682
     29 H9         -0.9990    6.1080    0.6500 h1        1 MOL      0.096410
     30 H10         0.5310    4.2760   -1.2030 hc        1 MOL      0.011607
     31 H11         1.2870    5.0930    0.2130 hc        1 MOL      0.011607
     32 H12         0.7390    7.2470   -0.5960 hc        1 MOL      0.062151
     33 H13        -0.0690    6.5750   -2.0660 hc        1 MOL      0.062151
     34 H14         1.9540    5.7190   -3.0070 hc        1 MOL      0.008575
     35 H15         2.7640    5.9710   -1.3860 hc        1 MOL      0.008575
     36 H16         2.6640    8.3710   -1.8090 hx        1 MOL      0.025266
     37 H17         1.5780    8.0980   -3.1640 hx        1 MOL      0.025266
     38 H18         3.4960    6.7930   -4.1930 hn        1 MOL      0.346465
     39 H19         3.7390    8.4060   -4.0240 hn        1 MOL      0.346465
     40 H20         4.4700    7.4070   -2.9990 hn        1 MOL      0.346465
     41 N4         -2.8900    4.0810   -0.9890 n         1 MOL     -0.399645
     42 C13        -4.0190    4.0510   -1.9040 c3        1 MOL      0.076975
     43 C14        -5.3170    3.4920   -1.3450 c         1 MOL      0.525057
     44 O6         -6.3690    3.7100   -1.9050 o         1 MOL     -0.565074
     45 C15        -3.6150    3.2600   -3.1090 c3        1 MOL     -0.289607
     46 C16        -2.9910    1.8770   -2.8010 c         1 MOL      0.821312
     47 O7         -1.8080    1.5590   -3.0180 o         1 MOL     -0.790593
     48 O8         -3.6110    1.0340   -2.1320 o         1 MOL     -0.790593
     49 H21        -2.6970    3.3190   -0.3540 hn        1 MOL      0.275874
     50 H22        -4.3330    5.0540   -2.1980 h1        1 MOL      0.101842
     51 H23        -2.8740    3.8160   -3.6950 hc        1 MOL      0.069730
     52 H24        -4.5070    3.0290   -3.6860 hc        1 MOL      0.069730
     53 N5         -5.2740    2.9260   -0.1530 n         1 MOL     -0.320598
     54 C17        -6.5010    2.4660    0.6100 c3        1 MOL     -0.168600
     55 C18        -6.9700    1.0060    0.3600 c         1 MOL      0.619895
     56 O9         -7.8470    0.5410    1.0750 o         1 MOL     -0.592510
     57 H25        -4.4110    2.6230    0.2680 hn        1 MOL      0.245359
     58 H26        -7.3680    3.0670    0.3510 h1        1 MOL      0.112002
     59 H27        -6.2700    2.6320    1.6640 h1        1 MOL      0.112002
     60 N6         -6.4000    0.2130   -0.6010 n         1 MOL     -0.419855
     61 C19        -6.7580   -1.1460   -1.0030 c3        1 MOL     -0.006010
     62 C20        -6.4890   -2.2590   -0.0170 c         1 MOL      0.365038
     63 O10        -6.6740   -3.4330   -0.3060 o         1 MOL     -0.498017
     64 C21        -6.1190   -1.4120   -2.3720 c3        1 MOL     -0.276714
     65 C22        -4.6240   -1.7810   -2.3380 c         1 MOL      0.761962
     66 N7         -4.0130   -2.0940   -3.4910 n         1 MOL     -0.758022
     67 O11        -3.9190   -1.7140   -1.3160 o         1 MOL     -0.713992
     68 H28        -5.6210    0.6790   -1.0510 hn        1 MOL      0.255098
     69 H29        -7.8320   -1.1070   -1.1810 h1        1 MOL      0.144722
     70 H30        -6.1840   -0.5900   -3.0860 hc        1 MOL      0.104496
     71 H31        -6.6550   -2.2090   -2.9040 hc        1 MOL      0.104496
     72 H32        -4.4240   -1.9470   -4.3990 hn        1 MOL      0.369373
     73 H33        -3.1100   -2.4640   -3.2510 hn        1 MOL      0.369373
     74 N8         -6.0120   -1.9550    1.2020 n         1 MOL     -0.094288
     75 C23        -5.8250   -2.8660    2.2710 c3        1 MOL     -0.315469
     76 C24        -4.5210   -3.6950    2.3550 c         1 MOL      0.499559
     77 O12        -4.4000   -4.4990    3.3070 o         1 MOL     -0.546537
     78 H34        -5.9210   -0.9670    1.3930 hn        1 MOL      0.224775
     79 H35        -6.6450   -3.5880    2.2760 h1        1 MOL      0.141558
     80 H36        -5.9380   -2.1670    3.0910 h1        1 MOL      0.141558
     81 N9         -3.5020   -3.4890    1.4770 n         1 MOL     -0.164225
     82 C25        -2.1960   -4.0550    1.7380 c3        1 MOL     -0.078186
     83 C26        -1.0700   -3.1460    1.2670 c         1 MOL      0.584240
     84 O13        -1.2390   -2.2770    0.4360 o         1 MOL     -0.556057
     85 C27        -2.0740   -5.3960    0.9270 c3        1 MOL     -0.100027
     86 C28        -2.2830   -5.2060   -0.5590 ca        1 MOL     -0.045285
     87 C29        -1.1950   -4.9060   -1.4280 ca        1 MOL     -0.083326
     88 C30        -3.5650   -5.4300   -1.1300 ca        1 MOL     -0.083326
     89 C31        -1.4060   -4.8440   -2.7860 ca        1 MOL     -0.286941
     90 C32        -3.7790   -5.3890   -2.5000 ca        1 MOL     -0.286941
     91 C33        -2.6920   -5.0760   -3.3270 ca        1 MOL      0.325220
     92 O14        -2.8660   -4.9900   -4.6680 oh        1 MOL     -0.541767
     93 H37        -3.5930   -2.9020    0.6660 hn        1 MOL      0.293279
     94 H38        -2.0180   -4.1580    2.7990 h1        1 MOL      0.092527
     95 H39        -2.6510   -6.1930    1.4080 hc        1 MOL      0.053136
     96 H40        -1.0520   -5.7400    1.0760 hc        1 MOL      0.053136
     97 H41        -0.1700   -4.8890   -1.0900 ha        1 MOL      0.129649
     98 H42        -4.3940   -5.7410   -0.5180 ha        1 MOL      0.129649
     99 H43        -0.5520   -4.5880   -3.4000 ha        1 MOL      0.143744
    100 H44        -4.7860   -5.5020   -2.8750 ha        1 MOL      0.143744
    101 H45        -3.6260   -5.5090   -4.9260 ho        1 MOL      0.397940
    102 N10         0.1710   -3.4040    1.7750 n         1 MOL     -0.404170
    103 C34         1.4040   -2.7140    1.5120 c3        1 MOL     -0.137923
    104 C35         2.4750   -3.6760    1.2240 c         1 MOL      0.511493
    105 O15         2.5460   -4.7950    1.6210 o         1 MOL     -0.515755
    106 C36         1.6860   -1.6230    2.6550 c3        1 MOL      0.138652
    107 C37         1.9010   -2.2430    4.0330 c3        1 MOL      0.151576
    108 C38         0.5470   -0.6840    2.8610 c3        1 MOL      0.231056
    109 C39         3.3320   -2.7140    4.3120 c3        1 MOL     -0.401505
    110 H46         0.3360   -4.2260    2.3260 hn        1 MOL      0.302180
    111 H47         1.2660   -2.0970    0.6220 h1        1 MOL      0.081712
    112 H48         2.5060   -0.9490    2.4080 hc        1 MOL     -0.121177
    113 H49         1.1680   -3.0440    4.1640 hc        1 MOL     -0.039221
    114 H50         1.7360   -1.5310    4.8430 hc        1 MOL     -0.039221
    115 H51        -0.2710   -1.0960    3.4490 hc        1 MOL     -0.034046
    116 H52         0.8660    0.2800    3.2610 hc        1 MOL     -0.034046
    117 H53         0.0920   -0.4860    1.8860 hc        1 MOL     -0.034046
    118 H54         3.6180   -3.3980    3.5130 hc        1 MOL      0.102542
    119 H55         3.9200   -1.7960    4.3260 hc        1 MOL      0.102542
    120 H56         3.3770   -3.0670    5.3360 hc        1 MOL      0.102542
    121 N11         3.4780   -3.1990    0.4960 n         1 MOL     -0.270393
    122 C40         4.6510   -3.8930   -0.0140 c3        1 MOL      0.066271
    123 C41         5.8850   -2.9670    0.1330 c         1 MOL      0.441932
    124 O16         5.7980   -1.9090    0.7270 o         1 MOL     -0.418872
    125 C42         4.4030   -4.3340   -1.4800 c3        1 MOL      0.085144
    126 O17         4.4650   -3.2660   -2.3100 oh        1 MOL     -0.576959
    127 H57         3.3850   -2.2500    0.1740 hn        1 MOL      0.158537
    128 H58         4.8090   -4.8740    0.4360 h1        1 MOL      0.049179
    129 H59         3.4530   -4.8530   -1.4970 h1        1 MOL      0.047638
    130 H60         5.2030   -5.0070   -1.8020 h1        1 MOL      0.047638
    131 H61         3.5690   -2.9330   -2.4640 ho        1 MOL      0.403324
    132 N12         7.0320   -3.3360   -0.4430 n         1 MOL     -0.458475
    133 C43         8.2900   -2.5820   -0.2200 c3        1 MOL      0.219422
    134 C44         8.4120   -1.1170   -0.5490 c         1 MOL      0.446786
    135 O18         8.7230   -0.2950    0.2970 o         1 MOL     -0.507527
    136 C45         9.3770   -3.3390   -0.9260 c3        1 MOL     -0.302019
    137 H62         7.2130   -4.2500   -0.8410 hn        1 MOL      0.300854
    138 H63         8.5530   -2.5810    0.8380 h1        1 MOL      0.046961
    139 H64         9.4190   -4.3740   -0.6150 hc        1 MOL      0.083212
    140 H65         9.2370   -3.2270   -2.0040 hc        1 MOL      0.083212
    141 H66        10.3380   -2.8910   -0.6540 hc        1 MOL      0.083212
    142 N13         8.0490   -0.7290   -1.7630 n         1 MOL     -0.339390
    143 C46         8.0360    0.6460   -2.2520 c3        1 MOL     -0.033364
    144 C47         6.9840    1.4720   -1.5430 c         1 MOL      0.559685
    145 O19         7.0670    2.6620   -1.5410 o         1 MOL     -0.549235
    146 C48         7.7580    0.5230   -3.7640 c3        1 MOL     -0.211473
    147 H67         7.7610   -1.4480   -2.4160 hn        1 MOL      0.254515
    148 H68         9.0330    1.0130   -1.9970 h1        1 MOL      0.125605
    149 H69         6.7720    0.1520   -4.0320 hc        1 MOL      0.070932
    150 H70         8.0030    1.4500   -4.2880 hc        1 MOL      0.070932
    151 H71         8.4820   -0.1940   -4.1390 hc        1 MOL      0.070932
    152 N14         5.9760    0.7990   -0.9530 n         1 MOL     -0.314105
    153 C49         4.8110    1.5230   -0.3580 c3        1 MOL     -0.012364
    154 C50         4.9960    1.7350    1.1730 c         1 MOL      0.540598
    155 O20         4.7380    2.8360    1.6300 o         1 MOL     -0.563412
    156 C51         3.4880    0.8150   -0.6660 c3        1 MOL     -0.139423
    157 C52         2.2150    1.6380   -0.1300 c3        1 MOL     -0.250968
    158 C53         0.8300    1.0540   -0.4720 c         1 MOL      0.865269
    159 O21        -0.1950    1.6120   -0.0690 o         1 MOL     -0.808980
    160 O22         0.7320   -0.0440   -1.0960 o         1 MOL     -0.808980
    161 H72         5.9190   -0.2100   -0.9680 hn        1 MOL      0.176017
    162 H73         4.7040    2.5220   -0.7850 h1        1 MOL      0.062747
    163 H74         3.5110   -0.1340   -0.1240 hc        1 MOL      0.074205
    164 H75         3.3210    0.5170   -1.6980 hc        1 MOL      0.074205
    165 H76         2.2820    2.6700   -0.4630 hc        1 MOL      0.093126
    166 H77         2.1820    1.7140    0.9640 hc        1 MOL      0.093126
    167 N15         5.5680    0.7990    1.8870 n         1 MOL     -0.088443
    168 C54         6.3310    0.8940    3.1070 c3        1 MOL     -0.175577
    169 H78         6.9890    1.7620    3.0570 h1        1 MOL      0.086353
    170 H79         5.6520    1.0030    3.9530 h1        1 MOL      0.086353
    171 H80         6.9290   -0.0080    3.2330 h1        1 MOL      0.086353
    172 H81         5.7890   -0.0090    1.3310 hn        1 MOL      0.086020
    173 Ca1        -1.8440   -0.1410   -0.7760 Ca        1 MOL      1.737518
    174 O23        -1.0090   -1.7500   -2.7440 oh        1 MOL     -0.717493
    175 H82        -0.0890   -1.7700   -2.4930 ho        1 MOL      0.379664
    176 H83        -1.0020   -1.5580   -3.6850 ho        1 MOL      0.379664
@<TRIPOS>BOND
     1    1    2 1   
     2    1    4 1   
     3    1    5 1   
     4    1    6 1   
     5    2    3 2   
     6    2    7 1   
     7    7    8 1   
     8    7   15 1   
     9    8    9 1   
    10    8   11 1   
    11    8   16 1   
    12    9   10 2   
    13    9   19 1   
    14   11   12 1   
    15   11   17 1   
    16   11   18 1   
    17   12   13 1   
    18   12   14 1   
    19   19   20 1   
    20   19   28 1   
    21   20   21 1   
    22   20   23 1   
    23   20   29 1   
    24   21   22 2   
    25   21   41 1   
    26   23   24 1   
    27   23   30 1   
    28   23   31 1   
    29   24   25 1   
    30   24   32 1   
    31   24   33 1   
    32   25   26 1   
    33   25   34 1   
    34   25   35 1   
    35   26   27 1   
    36   26   36 1   
    37   26   37 1   
    38   27   38 1   
    39   27   39 1   
    40   27   40 1   
    41   41   42 1   
    42   41   49 1   
    43   42   43 1   
    44   42   45 1   
    45   42   50 1   
    46   43   44 2   
    47   43   53 1   
    48   45   46 1   
    49   45   51 1   
    50   45   52 1   
    51   46   47 1   
    52   46   48 1   
    53   53   54 1   
    54   53   57 1   
    55   54   55 1   
    56   54   58 1   
    57   54   59 1   
    58   55   56 2   
    59   55   60 1   
    60   60   61 1   
    61   60   68 1   
    62   61   62 1   
    63   61   64 1   
    64   61   69 1   
    65   62   63 2   
    66   62   74 1   
    67   64   65 1   
    68   64   70 1   
    69   64   71 1   
    70   65   66 1   
    71   65   67 2   
    72   66   72 1   
    73   66   73 1   
    74   74   75 1   
    75   74   78 1   
    76   75   76 1   
    77   75   79 1   
    78   75   80 1   
    79   76   77 2   
    80   76   81 1   
    81   81   82 1   
    82   81   93 1   
    83   82   83 1   
    84   82   85 1   
    85   82   94 1   
    86   83   84 2   
    87   83  102 1   
    88   85   86 1   
    89   85   95 1   
    90   85   96 1   
    91   86   87 ar  
    92   86   88 ar  
    93   87   89 ar  
    94   87   97 1   
    95   88   90 ar  
    96   88   98 1   
    97   89   91 ar  
    98   89   99 1   
    99   90   91 ar  
   100   90  100 1   
   101   91   92 1   
   102   92  101 1   
   103  102  103 1   
   104  102  110 1   
   105  103  104 1   
   106  103  106 1   
   107  103  111 1   
   108  104  105 2   
   109  104  121 1   
   110  106  107 1   
   111  106  108 1   
   112  106  112 1   
   113  107  109 1   
   114  107  113 1   
   115  107  114 1   
   116  108  115 1   
   117  108  116 1   
   118  108  117 1   
   119  109  118 1   
   120  109  119 1   
   121  109  120 1   
   122  121  122 1   
   123  121  127 1   
   124  122  123 1   
   125  122  125 1   
   126  122  128 1   
   127  123  124 2   
   128  123  132 1   
   129  125  126 1   
   130  125  129 1   
   131  125  130 1   
   132  126  131 1   
   133  132  133 1   
   134  132  137 1   
   135  133  134 1   
   136  133  136 1   
   137  133  138 1   
   138  134  135 2   
   139  134  142 1   
   140  136  139 1   
   141  136  140 1   
   142  136  141 1   
   143  142  143 1   
   144  142  147 1   
   145  143  144 1   
   146  143  146 1   
   147  143  148 1   
   148  144  145 2   
   149  144  152 1   
   150  146  149 1   
   151  146  150 1   
   152  146  151 1   
   153  152  153 1   
   154  152  161 1   
   155  153  154 1   
   156  153  156 1   
   157  153  162 1   
   158  154  155 2   
   159  154  167 1   
   160  156  157 1   
   161  156  163 1   
   162  156  164 1   
   163  157  158 1   
   164  157  165 1   
   165  157  166 1   
   166  158  159 1   
   167  158  160 1   
   168  167  168 1   
   169  167  172 1   
   170  168  169 1   
   171  168  170 1   
   172  168  171 1   
   173  174  175 1   
   174  174  176 1   
@<TRIPOS>SUBSTRUCTURE
     1 MOL         1 TEMP              0 ****  ****    0 ROOT
