@<TRIPOS>MOLECULE
MOL
  179   176     1     0     0
SMALL
resp


@<TRIPOS>ATOM
      1 C1          2.4420    1.3710    5.6150 c3        1 MOL     -0.335813
      2 C2          1.7770    1.2890    4.2260 c         1 MOL      0.738049
      3 O1          2.3970    1.1010    3.1910 o         1 MOL     -0.619543
      4 H1          1.6720    1.4390    6.3830 hc        1 MOL      0.089558
      5 H2          3.0450    0.4790    5.7830 hc        1 MOL      0.089558
      6 H3          3.0780    2.2540    5.6610 hc        1 MOL      0.089558
      7 N1          0.4580    1.5480    4.1400 n         1 MOL     -0.548225
      8 C3         -0.2670    1.7050    2.9290 c3        1 MOL     -0.005832
      9 C4         -0.0210    3.1400    2.4220 c         1 MOL      0.544936
     10 O2         -0.4780    4.0400    3.0520 o         1 MOL     -0.553635
     11 C5         -1.7200    1.3480    3.2240 c3        1 MOL     -0.008521
     12 C6         -2.6240    1.5040    1.9890 c         1 MOL      0.541702
     13 O3         -3.8730    1.5350    2.2790 o         1 MOL     -0.656089
     14 O4         -2.1490    1.4290    0.8600 o         1 MOL     -0.656089
     15 H4         -0.0880    1.4830    4.9870 hn        1 MOL      0.300558
     16 H5          0.1380    0.9990    2.1870 h1        1 MOL      0.071004
     17 H6         -2.2450    1.9170    3.9910 hc        1 MOL      0.024382
     18 H7         -1.7220    0.3210    3.5740 hc        1 MOL      0.024382
     19 N2          0.6110    3.3040    1.2730 n         1 MOL     -0.170958
     20 C7          1.1300    4.6200    0.8360 c3        1 MOL     -0.293311
     21 C8          0.1450    5.4150    0.0220 c         1 MOL      0.451001
     22 O5          0.0000    6.6350    0.2280 o         1 MOL     -0.527921
     23 C9          2.4190    4.2920    0.0280 c3        1 MOL      0.140797
     24 C10         3.3710    5.4380   -0.0390 c3        1 MOL     -0.185618
     25 C11         4.7200    5.1460   -0.6290 c3        1 MOL      0.025217
     26 C12         5.7520    6.2680   -0.3980 c3        1 MOL     -0.004758
     27 N3          6.9410    6.0320   -1.3100 n4        1 MOL     -0.320208
     28 H8          0.9100    2.4920    0.7360 hn        1 MOL      0.178662
     29 H9          1.4360    5.1780    1.7200 h1        1 MOL      0.154542
     30 H10         2.2210    3.9870   -1.0020 hc        1 MOL      0.069686
     31 H11         2.9260    3.4710    0.5380 hc        1 MOL      0.069686
     32 H12         3.5380    5.7730    0.9840 hc        1 MOL      0.050640
     33 H13         2.9140    6.2300   -0.6420 hc        1 MOL      0.050640
     34 H14         4.5760    4.9210   -1.6860 hc        1 MOL      0.035779
     35 H15         5.1000    4.2280   -0.1720 hc        1 MOL      0.035779
     36 H16         6.0890    6.2680    0.6330 hx        1 MOL      0.107850
     37 H17         5.3150    7.2550   -0.5870 hx        1 MOL      0.107850
     38 H18         7.6190    6.7930   -1.3520 hn        1 MOL      0.313657
     39 H19         7.4410    5.1980   -1.0270 hn        1 MOL      0.313657
     40 H20         6.6440    5.8110   -2.2520 hn        1 MOL      0.313657
     41 N4         -0.5190    4.7520   -0.9130 n         1 MOL     -0.285185
     42 C13        -1.6210    5.2960   -1.6320 c3        1 MOL      0.017895
     43 C14        -2.9940    5.3570   -0.8500 c         1 MOL      0.439900
     44 O6         -3.9520    5.9720   -1.3790 o         1 MOL     -0.522976
     45 C15        -1.8450    4.4820   -2.9480 c3        1 MOL     -0.290092
     46 C16        -1.9960    3.0050   -2.9870 c         1 MOL      0.886080
     47 O7         -2.0180    2.4470   -4.1180 o         1 MOL     -0.765955
     48 O8         -2.0920    2.4300   -1.9190 o         1 MOL     -0.765955
     49 H21        -0.2610    3.7900   -1.0990 hn        1 MOL      0.278162
     50 H22        -1.4350    6.2960   -2.0290 h1        1 MOL      0.087960
     51 H23        -0.9220    4.6450   -3.5160 hc        1 MOL      0.066105
     52 H24        -2.7520    4.8650   -3.4320 hc        1 MOL      0.066105
     53 N5         -3.0190    4.5970    0.2500 n         1 MOL     -0.295119
     54 C17        -4.3270    4.4840    0.9800 c3        1 MOL      0.003639
     55 C18        -5.4850    3.6450    0.3170 c         1 MOL      0.406274
     56 O9         -6.6940    3.8770    0.5730 o         1 MOL     -0.556176
     57 H25        -2.2070    4.0100    0.4370 hn        1 MOL      0.289406
     58 H26        -4.7270    5.4420    1.3110 h1        1 MOL      0.076768
     59 H27        -4.1140    4.0940    1.9840 h1        1 MOL      0.076768
     60 N6         -5.1960    2.7010   -0.5430 n         1 MOL     -0.107318
     61 C19        -6.1150    1.7330   -1.1560 c3        1 MOL     -0.129132
     62 C20        -6.5720    0.6010   -0.2210 c         1 MOL      0.320742
     63 O10        -7.2810   -0.3300   -0.6150 o         1 MOL     -0.433105
     64 C21        -5.5280    1.2720   -2.5680 c3        1 MOL     -0.363785
     65 C22        -4.8250   -0.0250   -2.5060 c         1 MOL      0.553525
     66 N7         -5.1050   -1.0520   -3.2880 n         1 MOL     -0.699469
     67 O11        -3.9840   -0.0830   -1.6480 o         1 MOL     -0.595753
     68 H28        -4.2270    2.6020   -0.8060 hn        1 MOL      0.181594
     69 H29        -7.0420    2.2720   -1.3770 h1        1 MOL      0.152442
     70 H30        -4.9720    2.0400   -3.1020 hc        1 MOL      0.159593
     71 H31        -6.3890    1.0810   -3.2110 hc        1 MOL      0.159593
     72 H32        -5.7750   -0.9040   -4.0300 hn        1 MOL      0.356728
     73 H33        -4.7960   -2.0090   -3.1830 hn        1 MOL      0.356728
     74 N8         -6.0530    0.6210    0.9980 n         1 MOL     -0.077118
     75 C23        -6.2720   -0.4680    1.9020 c3        1 MOL     -0.321214
     76 C24        -5.4560   -1.7210    1.6940 c         1 MOL      0.427634
     77 O12        -5.8430   -2.8120    2.0980 o         1 MOL     -0.502634
     78 H34        -5.2890    1.2230    1.2740 hn        1 MOL      0.218372
     79 H35        -7.3020   -0.8010    1.7810 h1        1 MOL      0.147534
     80 H36        -6.0850   -0.1780    2.9370 h1        1 MOL      0.147534
     81 N9         -4.3080   -1.7120    0.9730 n         1 MOL     -0.198913
     82 C25        -3.3390   -2.8570    1.0830 c3        1 MOL      0.365823
     83 C26        -1.9490   -2.3710    1.2140 c         1 MOL      0.059028
     84 O13        -1.5430   -1.3340    0.6240 o         1 MOL     -0.416347
     85 C27        -3.3620   -3.8850   -0.1070 c3        1 MOL      0.028493
     86 C28        -4.7860   -4.4490   -0.5630 ca        1 MOL      0.142100
     87 C29        -5.7990   -3.5780   -1.0350 ca        1 MOL     -0.412631
     88 C30        -5.0630   -5.8410   -0.4540 ca        1 MOL     -0.412631
     89 C31        -7.1160   -4.0810   -1.2580 ca        1 MOL      0.060244
     90 C32        -6.3490   -6.2560   -0.7950 ca        1 MOL      0.060244
     91 C33        -7.3410   -5.4540   -1.1360 ca        1 MOL      0.092367
     92 O14        -8.6290   -5.8900   -1.3990 oh        1 MOL     -0.450750
     93 H37        -4.0120   -0.8820    0.4790 hn        1 MOL      0.226678
     94 H38        -3.5810   -3.4990    1.9290 h1        1 MOL     -0.020572
     95 H39        -2.8640   -4.7750    0.2600 hc        1 MOL      0.002787
     96 H40        -2.9110   -3.3210   -0.9250 hc        1 MOL      0.002787
     97 H41        -5.6480   -2.5060   -1.0450 ha        1 MOL      0.178494
     98 H42        -4.3600   -6.6040   -0.1560 ha        1 MOL      0.178494
     99 H43        -7.8560   -3.4630   -1.7540 ha        1 MOL      0.063756
    100 H44        -6.5870   -7.3070   -0.8170 ha        1 MOL      0.063756
    101 H45        -8.7000   -6.8410   -1.2840 ho        1 MOL      0.344541
    102 N10        -1.1130   -3.2150    1.8570 n         1 MOL     -0.303703
    103 C34         0.3300   -2.9530    1.8430 c3        1 MOL      0.058299
    104 C35         0.9720   -3.9350    0.7980 c         1 MOL      0.423313
    105 O15         0.6380   -5.0860    0.6300 o         1 MOL     -0.547234
    106 C36         0.9050   -3.1030    3.2530 c3        1 MOL      0.110871
    107 C37         0.0710   -2.4340    4.3630 c3        1 MOL      0.260674
    108 C38         2.3910   -2.6110    3.3360 c3        1 MOL     -0.201832
    109 C39         0.3680   -3.0650    5.7300 c3        1 MOL     -0.364787
    110 H46        -1.4340   -3.9910    2.4230 hn        1 MOL      0.289498
    111 H47         0.4190   -1.9380    1.4820 h1        1 MOL      0.078388
    112 H48         0.8640   -4.1690    3.4530 hc        1 MOL     -0.020069
    113 H49        -0.9780   -2.7320    4.2730 hc        1 MOL     -0.056464
    114 H50         0.2220   -1.3560    4.4050 hc        1 MOL     -0.056464
    115 H51         2.7290   -2.7790    4.3530 hc        1 MOL      0.024353
    116 H52         3.0150   -3.1600    2.6340 hc        1 MOL      0.024353
    117 H53         2.5770   -1.5680    3.0590 hc        1 MOL      0.024353
    118 H54        -0.2630   -2.6260    6.4950 hc        1 MOL      0.084721
    119 H55        -0.0150   -4.0880    5.6910 hc        1 MOL      0.084721
    120 H56         1.4050   -3.2100    6.0330 hc        1 MOL      0.084721
    121 N11         1.9860   -3.3960    0.1210 n         1 MOL     -0.050334
    122 C40         2.7430   -4.1310   -0.8610 c3        1 MOL     -0.253953
    123 C41         4.2100   -3.8300   -0.5000 c         1 MOL      0.468305
    124 O16         4.6330   -2.9940    0.3270 o         1 MOL     -0.423951
    125 C42         2.3390   -3.6360   -2.2820 c3        1 MOL     -0.094413
    126 O17         2.4760   -2.2770   -2.4300 oh        1 MOL     -0.537152
    127 H57         2.3300   -2.4500    0.2570 hn        1 MOL      0.233307
    128 H58         2.4560   -5.1760   -0.8180 h1        1 MOL      0.144837
    129 H59         1.3440   -3.9220   -2.6300 h1        1 MOL      0.098142
    130 H60         3.0910   -4.0080   -2.9860 h1        1 MOL      0.098142
    131 H61         1.8870   -1.7920   -1.8420 ho        1 MOL      0.469030
    132 N12         5.1050   -4.5360   -1.2100 n         1 MOL     -0.357183
    133 C43         6.5400   -4.5850   -0.8760 c3        1 MOL      0.075018
    134 C44         7.2270   -3.2630   -1.2970 c         1 MOL      0.571761
    135 O18         8.0030   -2.7030   -0.5130 o         1 MOL     -0.524854
    136 C45         7.1690   -5.8590   -1.4590 c3        1 MOL     -0.299427
    137 H62         4.7970   -5.3250   -1.7600 hn        1 MOL      0.270425
    138 H63         6.6630   -4.6000    0.2070 h1        1 MOL      0.082842
    139 H64         6.4400   -6.6630   -1.3860 hc        1 MOL      0.093324
    140 H65         7.3440   -5.6590   -2.5190 hc        1 MOL      0.093324
    141 H66         8.1310   -6.0440   -0.9820 hc        1 MOL      0.093324
    142 N13         6.8280   -2.6700   -2.4300 n         1 MOL     -0.582986
    143 C46         7.3090   -1.2870   -2.7830 c3        1 MOL      0.314473
    144 C47         6.9660   -0.2070   -1.7840 c         1 MOL      0.220177
    145 O19         7.7960    0.6820   -1.4580 o         1 MOL     -0.484942
    146 C48         6.8700   -0.9860   -4.1830 c3        1 MOL     -0.383595
    147 H67         6.0800   -3.0680   -2.9860 hn        1 MOL      0.319543
    148 H68         8.4000   -1.2340   -2.8120 h1        1 MOL      0.065717
    149 H69         5.7850   -1.0830   -4.3060 hc        1 MOL      0.098449
    150 H70         7.3020   -0.0480   -4.5430 hc        1 MOL      0.098449
    151 H71         7.3390   -1.7760   -4.7600 hc        1 MOL      0.098449
    152 N14         5.7680   -0.3170   -1.1590 n         1 MOL     -0.053971
    153 C49         5.3620    0.4950   -0.0450 c3        1 MOL     -0.121777
    154 C50         6.0260    0.2690    1.2470 c         1 MOL      0.537593
    155 O20         6.5200    1.1520    1.9200 o         1 MOL     -0.540008
    156 C51         3.8060    0.4730    0.1180 c3        1 MOL      0.127252
    157 C52         3.0290    0.7600   -1.1430 c3        1 MOL     -0.047388
    158 C53         1.5700    0.5180   -0.7810 c         1 MOL      0.920493
    159 O21         1.0920   -0.6560   -0.9680 o         1 MOL     -0.869545
    160 O22         0.8470    1.5110   -0.6080 o         1 MOL     -0.869545
    161 H72         5.0550   -0.9630   -1.4630 hn        1 MOL      0.214921
    162 H73         5.6220    1.5220   -0.3310 h1        1 MOL      0.026104
    163 H74         3.6220    1.2850    0.8330 hc        1 MOL     -0.032023
    164 H75         3.5240   -0.5360    0.4160 hc        1 MOL     -0.032023
    165 H76         3.3250   -0.0710   -1.7710 hc        1 MOL     -0.073335
    166 H77         3.2560    1.7510   -1.5600 hc        1 MOL     -0.073335
    167 N15         6.2420   -1.0680    1.5560 n         1 MOL     -0.146704
    168 C54         6.9120   -1.4580    2.8540 c3        1 MOL     -0.403144
    169 H78         6.3470   -1.0490    3.6920 h1        1 MOL      0.146013
    170 H79         6.9440   -2.5450    2.9340 h1        1 MOL      0.146013
    171 H80         7.9270   -1.0620    2.8730 h1        1 MOL      0.146013
    172 H81         5.9920   -1.7850    0.8930 hn        1 MOL      0.163829
    173 Ca1        -1.3060    0.1850   -1.3340 Ca        1 MOL      1.723504
    174 O23        -1.6920   -1.9660   -2.8460 oh        1 MOL     -0.842988
    175 H82        -1.1930   -1.8560   -3.6540 ho        1 MOL      0.403743
    176 H83        -2.4430   -2.5050   -3.0940 ho        1 MOL      0.403743
    177 O24        -0.1990    0.6250   -3.7230 oh        1 MOL     -0.842988
    178 H84         0.4290    0.4050   -4.4080 ho        1 MOL      0.403743
    179 H85        -0.7810    1.2690   -4.1300 ho        1 MOL      0.403743
@<TRIPOS>BOND
     1    1    2 1   
     2    1    4 1   
     3    1    5 1   
     4    1    6 1   
     5    2    3 2   
     6    2    7 1   
     7    7    8 1   
     8    7   15 1   
     9    8    9 1   
    10    8   11 1   
    11    8   16 1   
    12    9   10 2   
    13    9   19 1   
    14   11   12 1   
    15   11   17 1   
    16   11   18 1   
    17   12   13 1   
    18   12   14 1   
    19   19   20 1   
    20   19   28 1   
    21   20   21 1   
    22   20   23 1   
    23   20   29 1   
    24   21   22 2   
    25   21   41 1   
    26   23   24 1   
    27   23   30 1   
    28   23   31 1   
    29   24   25 1   
    30   24   32 1   
    31   24   33 1   
    32   25   26 1   
    33   25   34 1   
    34   25   35 1   
    35   26   27 1   
    36   26   36 1   
    37   26   37 1   
    38   27   38 1   
    39   27   39 1   
    40   27   40 1   
    41   41   42 1   
    42   41   49 1   
    43   42   43 1   
    44   42   45 1   
    45   42   50 1   
    46   43   44 2   
    47   43   53 1   
    48   45   46 1   
    49   45   51 1   
    50   45   52 1   
    51   46   47 1   
    52   46   48 1   
    53   53   54 1   
    54   53   57 1   
    55   54   55 1   
    56   54   58 1   
    57   54   59 1   
    58   55   56 2   
    59   55   60 1   
    60   60   61 1   
    61   60   68 1   
    62   61   62 1   
    63   61   64 1   
    64   61   69 1   
    65   62   63 2   
    66   62   74 1   
    67   64   65 1   
    68   64   70 1   
    69   64   71 1   
    70   65   66 1   
    71   65   67 2   
    72   66   72 1   
    73   66   73 1   
    74   74   75 1   
    75   74   78 1   
    76   75   76 1   
    77   75   79 1   
    78   75   80 1   
    79   76   77 2   
    80   76   81 1   
    81   81   82 1   
    82   81   93 1   
    83   82   83 1   
    84   82   85 1   
    85   82   94 1   
    86   83   84 2   
    87   83  102 1   
    88   85   86 1   
    89   85   95 1   
    90   85   96 1   
    91   86   87 ar  
    92   86   88 ar  
    93   87   89 ar  
    94   87   97 1   
    95   88   90 ar  
    96   88   98 1   
    97   89   91 ar  
    98   89   99 1   
    99   90   91 ar  
   100   90  100 1   
   101   91   92 1   
   102   92  101 1   
   103  102  103 1   
   104  102  110 1   
   105  103  104 1   
   106  103  106 1   
   107  103  111 1   
   108  104  105 2   
   109  104  121 1   
   110  106  107 1   
   111  106  108 1   
   112  106  112 1   
   113  107  109 1   
   114  107  113 1   
   115  107  114 1   
   116  108  115 1   
   117  108  116 1   
   118  108  117 1   
   119  109  118 1   
   120  109  119 1   
   121  109  120 1   
   122  121  122 1   
   123  121  127 1   
   124  122  123 1   
   125  122  125 1   
   126  122  128 1   
   127  123  124 2   
   128  123  132 1   
   129  125  126 1   
   130  125  129 1   
   131  125  130 1   
   132  126  131 1   
   133  132  133 1   
   134  132  137 1   
   135  133  134 1   
   136  133  136 1   
   137  133  138 1   
   138  134  135 2   
   139  134  142 1   
   140  136  139 1   
   141  136  140 1   
   142  136  141 1   
   143  142  143 1   
   144  142  147 1   
   145  143  144 1   
   146  143  146 1   
   147  143  148 1   
   148  144  145 2   
   149  144  152 1   
   150  146  149 1   
   151  146  150 1   
   152  146  151 1   
   153  152  153 1   
   154  152  161 1   
   155  153  154 1   
   156  153  156 1   
   157  153  162 1   
   158  154  155 2   
   159  154  167 1   
   160  156  157 1   
   161  156  163 1   
   162  156  164 1   
   163  157  158 1   
   164  157  165 1   
   165  157  166 1   
   166  158  159 1   
   167  158  160 1   
   168  167  168 1   
   169  167  172 1   
   170  168  169 1   
   171  168  170 1   
   172  168  171 1   
   173  174  175 1   
   174  174  176 1   
   175  177  178 1   
   176  177  179 1   
@<TRIPOS>SUBSTRUCTURE
     1 MOL         1 TEMP              0 ****  ****    0 ROOT
