@<TRIPOS>MOLECULE
MOL
  189   185     1     0     0
SMALL
resp


@<TRIPOS>ATOM
      1 C1          0.2140    1.1070    6.0140 c3        1 MOL     -0.307317
      2 C2         -0.3800    1.5060    4.6420 c         1 MOL      0.869431
      3 O1          0.0760    2.4110    3.9540 o         1 MOL     -0.670348
      4 H1          1.0830    1.7300    6.2280 hc        1 MOL      0.075157
      5 H2         -0.5360    1.2500    6.7910 hc        1 MOL      0.075157
      6 H3          0.5160    0.0600    5.9880 hc        1 MOL      0.075157
      7 N1         -1.4480    0.8000    4.1720 n         1 MOL     -0.712764
      8 C3         -2.1070    0.9360    2.8770 c3        1 MOL      0.089598
      9 C4         -2.4170    2.4530    2.6890 c         1 MOL      0.599491
     10 O2         -3.1000    3.0400    3.5340 o         1 MOL     -0.571129
     11 C5         -3.3700    0.1380    2.9090 c3        1 MOL     -0.200132
     12 C6         -4.0070    0.0090    1.5140 c         1 MOL      0.791557
     13 O3         -5.1390   -0.4440    1.4230 o         1 MOL     -0.694260
     14 O4         -3.3140    0.4250    0.5670 o         1 MOL     -0.694260
     15 H4         -1.8180    0.0150    4.6950 hn        1 MOL      0.327512
     16 H5         -1.4650    0.5830    2.0670 h1        1 MOL      0.042075
     17 H6         -4.1480    0.5190    3.5710 hc        1 MOL      0.040998
     18 H7         -3.1020   -0.9050    3.0700 hc        1 MOL      0.040998
     19 N2         -1.7740    3.1440    1.7250 n         1 MOL     -0.104719
     20 C7         -1.9960    4.5820    1.3860 c3        1 MOL     -0.048472
     21 C8         -3.2800    4.9400    0.6370 c         1 MOL      0.368851
     22 O5         -3.8960    5.9570    0.9960 o         1 MOL     -0.544031
     23 C9         -0.8840    5.1200    0.4790 c3        1 MOL     -0.109853
     24 C10         0.5730    5.2630    1.0800 c3        1 MOL     -0.003775
     25 C11         1.6290    5.8810    0.1430 c3        1 MOL     -0.228924
     26 C12         1.5500    7.4210   -0.0300 c3        1 MOL      0.111288
     27 N3          2.6420    8.0740   -0.8080 n4        1 MOL     -0.433367
     28 H8         -1.1260    2.5420    1.2330 hn        1 MOL      0.117363
     29 H9         -2.1790    5.0490    2.3500 h1        1 MOL      0.077499
     30 H10        -1.0980    6.1350    0.1400 hc        1 MOL      0.036983
     31 H11        -0.8650    4.4750   -0.4030 hc        1 MOL      0.036983
     32 H12         0.9310    4.2500    1.2640 hc        1 MOL      0.068187
     33 H13         0.6000    5.7870    2.0340 hc        1 MOL      0.068187
     34 H14         1.6370    5.3410   -0.8090 hc        1 MOL      0.090642
     35 H15         2.5960    5.5600    0.5530 hc        1 MOL      0.090642
     36 H16         1.4740    7.8570    0.9720 hx        1 MOL      0.082982
     37 H17         0.6630    7.7380   -0.5620 hx        1 MOL      0.082982
     38 H18         2.5420    7.8320   -1.7790 hn        1 MOL      0.339804
     39 H19         2.5920    9.0820   -0.8250 hn        1 MOL      0.339804
     40 H20         3.5470    7.8010   -0.4760 hn        1 MOL      0.339804
     41 N4         -3.5930    4.1080   -0.2920 n         1 MOL     -0.133560
     42 C13        -4.6520    4.3840   -1.2710 c3        1 MOL      0.043457
     43 C14        -5.9660    3.6340   -0.8060 c         1 MOL      0.396516
     44 O6         -7.0240    3.9450   -1.3400 o         1 MOL     -0.527641
     45 C15        -4.2090    4.1540   -2.7420 c3        1 MOL     -0.212511
     46 C16        -3.3170    2.9650   -3.0470 c         1 MOL      0.724035
     47 O7         -3.2710    1.9710   -2.2880 o         1 MOL     -0.692917
     48 O8         -2.6470    2.9340   -4.1010 o         1 MOL     -0.692917
     49 H21        -2.9390    3.3780   -0.5580 hn        1 MOL      0.173387
     50 H22        -4.8410    5.4580   -1.1680 h1        1 MOL      0.069946
     51 H23        -3.5960    5.0380   -2.9500 hc        1 MOL      0.060513
     52 H24        -5.1040    4.2190   -3.3630 hc        1 MOL      0.060513
     53 N5         -5.8420    2.7150    0.1580 n         1 MOL     -0.151662
     54 C17        -7.0000    1.9250    0.6970 c3        1 MOL     -0.222789
     55 C18        -7.5460    0.8400   -0.2450 c         1 MOL      0.564262
     56 O9         -8.7120    0.6130   -0.2530 o         1 MOL     -0.581439
     57 H25        -4.8870    2.4960    0.4160 hn        1 MOL      0.072660
     58 H26        -7.7610    2.6960    0.8230 h1        1 MOL      0.128133
     59 H27        -6.7760    1.6190    1.7170 h1        1 MOL      0.128133
     60 N6         -6.6980    0.2670   -1.0770 n         1 MOL     -0.115370
     61 C19        -7.0440   -0.7750   -2.0730 c3        1 MOL     -0.211065
     62 C20        -7.1570   -2.1280   -1.5520 c         1 MOL      0.498718
     63 O10        -7.4860   -3.0770   -2.2770 o         1 MOL     -0.545812
     64 C21        -6.1500   -0.6440   -3.3350 c3        1 MOL     -0.104625
     65 C22        -4.6540   -0.7810   -3.0050 c         1 MOL      0.738308
     66 O11        -3.7580   -0.5170   -3.8510 o         1 MOL     -0.689517
     67 O12        -4.3420   -1.3880   -1.9540 o         1 MOL     -0.689517
     68 H28        -5.7000    0.3940   -0.9660 hn        1 MOL      0.049811
     69 H29        -8.0570   -0.5420   -2.3940 h1        1 MOL      0.159812
     70 H30        -6.3340    0.3490   -3.7460 hc        1 MOL      0.062802
     71 H31        -6.3720   -1.2590   -4.1980 hc        1 MOL      0.062802
     72 N7         -7.0230   -2.3150   -0.2170 n         1 MOL     -0.281061
     73 C23        -7.0300   -3.5530    0.5370 c3        1 MOL     -0.217981
     74 C24        -5.6790   -4.2850    0.6840 c         1 MOL      0.450110
     75 O13        -5.6340   -5.4580    1.1560 o         1 MOL     -0.578993
     76 H32        -6.7300   -1.4900    0.2760 hn        1 MOL      0.292984
     77 H33        -7.6540   -4.3250    0.0780 h1        1 MOL      0.126978
     78 H34        -7.4070   -3.2440    1.5140 h1        1 MOL      0.126978
     79 N8         -4.5910   -3.7380    0.2720 n         1 MOL      0.006600
     80 C25        -3.2890   -4.3760    0.0680 c3        1 MOL     -0.564319
     81 C26        -2.0350   -3.5050    0.3350 c         1 MOL      0.896995
     82 O14        -2.1020   -2.3850   -0.1520 o         1 MOL     -0.618154
     83 C27        -3.2060   -5.0340   -1.3580 c3        1 MOL      0.533126
     84 C28        -4.2560   -6.0340   -1.6920 c3        1 MOL     -0.613822
     85 O15        -3.3650   -4.0850   -2.3450 oh        1 MOL     -0.608316
     86 H35        -4.6640   -2.7490    0.0730 hn        1 MOL      0.133519
     87 H36        -3.1900   -5.2130    0.7610 h1        1 MOL      0.149465
     88 H37        -2.2190   -5.4460   -1.5510 h1        1 MOL     -0.013410
     89 H38        -3.6000   -3.2080   -2.0190 ho        1 MOL      0.418640
     90 H39        -4.2420   -6.3460   -2.7380 hc        1 MOL      0.163408
     91 H40        -4.1920   -6.8770   -0.9970 hc        1 MOL      0.163408
     92 H41        -5.2710   -5.6530   -1.5710 hc        1 MOL      0.163408
     93 N9         -1.0300   -4.0580    1.0040 n         1 MOL     -0.663763
     94 C29         0.1440   -3.2880    1.4450 c3        1 MOL     -0.027011
     95 C30         1.3420   -3.7210    0.6090 c         1 MOL      0.600916
     96 O16         1.6910   -4.9190    0.4750 o         1 MOL     -0.556367
     97 C31         0.3920   -3.4800    2.9460 c3        1 MOL      0.159697
     98 C32        -0.8400   -3.0360    3.8610 c3        1 MOL      0.443415
     99 C33         1.7570   -2.8790    3.4060 c3        1 MOL     -0.559964
    100 C34        -0.6530   -3.5860    5.2960 c3        1 MOL     -0.109850
    101 H42        -1.1530   -4.9690    1.4250 hn        1 MOL      0.328003
    102 H43        -0.1470   -2.2560    1.2210 h1        1 MOL      0.032255
    103 H44         0.4210   -4.5530    3.1680 hc        1 MOL      0.001099
    104 H45        -1.7830   -3.4330    3.4900 hc        1 MOL     -0.115456
    105 H46        -0.8480   -1.9460    3.9260 hc        1 MOL     -0.115456
    106 H47         1.8510   -3.0890    4.4660 hc        1 MOL      0.124929
    107 H48         2.5560   -3.4880    2.9710 hc        1 MOL      0.124929
    108 H49         1.8550   -1.7990    3.3030 hc        1 MOL      0.124929
    109 H50         0.1590   -3.1000    5.8320 hc        1 MOL      0.001079
    110 H51        -1.5040   -3.0970    5.7730 hc        1 MOL      0.001079
    111 H52        -0.6970   -4.6770    5.3430 hc        1 MOL      0.001079
    112 N10         2.0380   -2.7530   -0.0000 n         1 MOL     -0.423378
    113 C35         3.2750   -2.9240   -0.9270 c3        1 MOL      0.007268
    114 C36         4.6160   -2.8240   -0.1550 c         1 MOL      0.440138
    115 O17         4.6480   -2.3270    0.9350 o         1 MOL     -0.343957
    116 C37         3.3470   -2.0290   -2.1790 c3        1 MOL      0.094913
    117 C38         1.9980   -1.9230   -2.9540 c3        1 MOL     -0.084050
    118 O18         3.9190   -0.7990   -1.8290 oh        1 MOL     -0.545986
    119 H53         1.7050   -1.8030   -0.0590 hn        1 MOL      0.424714
    120 H54         3.2080   -3.9210   -1.3590 h1        1 MOL      0.072423
    121 H55         3.9790   -2.4540   -2.9460 h1        1 MOL      0.027690
    122 H56         3.5410   -0.1410   -2.4190 ho        1 MOL      0.394303
    123 H57         1.1500   -1.7380   -2.2940 hc        1 MOL      0.042222
    124 H58         2.0420   -1.1420   -3.7150 hc        1 MOL      0.042222
    125 H59         1.8920   -2.7730   -3.6350 hc        1 MOL      0.042222
    126 N11         5.7690   -3.0900   -0.7800 n         1 MOL     -0.416719
    127 C39         7.1490   -2.7720   -0.2400 c3        1 MOL     -0.011751
    128 C40         7.3500   -1.3000    0.0960 c         1 MOL      0.232055
    129 O19         7.8370   -0.9990    1.1890 o         1 MOL     -0.477777
    130 C41         8.3330   -3.2070   -1.1320 c3        1 MOL      0.153979
    131 C42         8.4690   -4.7020   -0.8800 c3        1 MOL     -0.377519
    132 O20         8.1780   -2.8430   -2.4860 oh        1 MOL     -0.605437
    133 H60         5.6950   -3.4940   -1.7010 hn        1 MOL      0.283043
    134 H61         7.2610   -3.3520    0.6750 h1        1 MOL      0.146643
    135 H62         9.2250   -2.7240   -0.7170 h1        1 MOL      0.080085
    136 H63         8.7520   -3.4530   -2.9490 ho        1 MOL      0.419743
    137 H64         8.3460   -4.9960    0.1660 hc        1 MOL      0.115760
    138 H65         7.7650   -5.3190   -1.4550 hc        1 MOL      0.115760
    139 H66         9.4700   -5.0200   -1.1670 hc        1 MOL      0.115760
    140 N12         7.0300   -0.3900   -0.8250 n         1 MOL     -0.022670
    141 C43         7.1070    1.0190   -0.5270 c3        1 MOL     -0.048519
    142 C44         5.9380    1.5180    0.4150 c         1 MOL      0.341160
    143 O21         6.2030    2.4290    1.1760 o         1 MOL     -0.512696
    144 C45         7.1620    1.8420   -1.8450 c3        1 MOL     -0.377055
    145 C46         8.3110    1.5360   -2.7880 c3        1 MOL      0.194459
    146 C47         9.7430    2.0400   -2.3550 c3        1 MOL      0.067289
    147 C48        10.7710    1.7650   -3.4960 c3        1 MOL     -0.039518
    148 N13        12.0900    2.1860   -3.1020 n4        1 MOL     -0.233696
    149 H67         6.6560   -0.7050   -1.7080 hn        1 MOL      0.220455
    150 H68         8.0490    1.1260   -0.0060 h1        1 MOL      0.105740
    151 H69         7.1430    2.8990   -1.5720 hc        1 MOL      0.118919
    152 H70         6.3040    1.6030   -2.4640 hc        1 MOL      0.118919
    153 H71         8.1580    1.9880   -3.7630 hc        1 MOL     -0.047301
    154 H72         8.3890    0.4590   -2.9170 hc        1 MOL     -0.047301
    155 H73         9.9700    1.4510   -1.4620 hc        1 MOL      0.013743
    156 H74         9.6530    3.0840   -2.0780 hc        1 MOL      0.013743
    157 H75        10.4540    2.3900   -4.3340 hx        1 MOL      0.086127
    158 H76        10.7440    0.7060   -3.7480 hx        1 MOL      0.086127
    159 H77        12.3860    1.4520   -2.4600 hn        1 MOL      0.268899
    160 H78        12.6420    2.0190   -3.9310 hn        1 MOL      0.268899
    161 H79        12.1980    3.1020   -2.6950 hn        1 MOL      0.268899
    162 N14         4.8270    0.8680    0.5490 n         1 MOL     -0.074447
    163 C49         3.8790    1.1780    1.6850 c3        1 MOL     -0.252804
    164 C50         4.4550    0.7420    3.0720 c         1 MOL      0.490922
    165 O22         4.3110    1.4330    4.1340 o         1 MOL     -0.561383
    166 C51         2.5110    0.5860    1.3320 c3        1 MOL      0.278804
    167 C52         1.7940    1.3990    0.1660 c3        1 MOL     -0.000988
    168 C53         0.3810    0.9610   -0.1200 c         1 MOL      0.725192
    169 O23         0.1170   -0.2310   -0.3040 o         1 MOL     -0.717968
    170 O24        -0.4340    1.8620   -0.4200 o         1 MOL     -0.717968
    171 H80         4.5250    0.2220   -0.1680 hn        1 MOL      0.129108
    172 H81         3.7420    2.2610    1.7370 h1        1 MOL      0.131202
    173 H82         1.8620    0.6360    2.2030 hc        1 MOL     -0.077964
    174 H83         2.6160   -0.4190    0.9210 hc        1 MOL     -0.077964
    175 H84         2.3710    1.2750   -0.7540 hc        1 MOL     -0.056695
    176 H85         1.8670    2.4540    0.4180 hc        1 MOL     -0.056695
    177 N15         5.1300   -0.3890    3.1700 n         1 MOL     -0.010523
    178 C54         5.8630   -0.8990    4.3850 c3        1 MOL     -0.355586
    179 H86         6.6560   -0.2000    4.6510 h1        1 MOL      0.132850
    180 H87         5.1650   -0.9920    5.2180 h1        1 MOL      0.132850
    181 H88         6.2980   -1.8740    4.1640 h1        1 MOL      0.132850
    182 H89         5.1610   -0.9810    2.3450 hn        1 MOL      0.075735
    183 Ca1        -2.1190   -0.0930   -1.5890 Ca        1 MOL      1.772414
    184 O25        -1.3800   -2.2570   -3.1180 oh        1 MOL     -0.882665
    185 H90        -0.9180   -1.9330   -3.8890 ho        1 MOL      0.403013
    186 H91        -2.0180   -2.8890   -3.4610 ho        1 MOL      0.403013
    187 O26        -0.7940    0.9420   -3.6570 oh        1 MOL     -0.882665
    188 H92        -1.5590    1.4470   -3.9510 ho        1 MOL      0.403013
    189 H93        -0.0950    1.1900   -4.2740 ho        1 MOL      0.403013
@<TRIPOS>BOND
     1    1    2 1   
     2    1    4 1   
     3    1    5 1   
     4    1    6 1   
     5    2    3 2   
     6    2    7 1   
     7    7    8 1   
     8    7   15 1   
     9    8    9 1   
    10    8   11 1   
    11    8   16 1   
    12    9   10 2   
    13    9   19 1   
    14   11   12 1   
    15   11   17 1   
    16   11   18 1   
    17   12   13 1   
    18   12   14 1   
    19   19   20 1   
    20   19   28 1   
    21   20   21 1   
    22   20   23 1   
    23   20   29 1   
    24   21   22 2   
    25   21   41 1   
    26   23   24 1   
    27   23   30 1   
    28   23   31 1   
    29   24   25 1   
    30   24   32 1   
    31   24   33 1   
    32   25   26 1   
    33   25   34 1   
    34   25   35 1   
    35   26   27 1   
    36   26   36 1   
    37   26   37 1   
    38   27   38 1   
    39   27   39 1   
    40   27   40 1   
    41   41   42 1   
    42   41   49 1   
    43   42   43 1   
    44   42   45 1   
    45   42   50 1   
    46   43   44 2   
    47   43   53 1   
    48   45   46 1   
    49   45   51 1   
    50   45   52 1   
    51   46   47 1   
    52   46   48 1   
    53   53   54 1   
    54   53   57 1   
    55   54   55 1   
    56   54   58 1   
    57   54   59 1   
    58   55   56 2   
    59   55   60 1   
    60   60   61 1   
    61   60   68 1   
    62   61   62 1   
    63   61   64 1   
    64   61   69 1   
    65   62   63 2   
    66   62   72 1   
    67   64   65 1   
    68   64   70 1   
    69   64   71 1   
    70   65   66 1   
    71   65   67 1   
    72   72   73 1   
    73   72   76 1   
    74   73   74 1   
    75   73   77 1   
    76   73   78 1   
    77   74   75 2   
    78   74   79 1   
    79   79   80 1   
    80   79   86 1   
    81   80   81 1   
    82   80   83 1   
    83   80   87 1   
    84   81   82 2   
    85   81   93 1   
    86   83   84 1   
    87   83   85 1   
    88   83   88 1   
    89   84   90 1   
    90   84   91 1   
    91   84   92 1   
    92   85   89 1   
    93   93   94 1   
    94   93  101 1   
    95   94   95 1   
    96   94   97 1   
    97   94  102 1   
    98   95   96 2   
    99   95  112 1   
   100   97   98 1   
   101   97   99 1   
   102   97  103 1   
   103   98  100 1   
   104   98  104 1   
   105   98  105 1   
   106   99  106 1   
   107   99  107 1   
   108   99  108 1   
   109  100  109 1   
   110  100  110 1   
   111  100  111 1   
   112  112  113 1   
   113  112  119 1   
   114  113  114 1   
   115  113  116 1   
   116  113  120 1   
   117  114  115 2   
   118  114  126 1   
   119  116  117 1   
   120  116  118 1   
   121  116  121 1   
   122  117  123 1   
   123  117  124 1   
   124  117  125 1   
   125  118  122 1   
   126  126  127 1   
   127  126  133 1   
   128  127  128 1   
   129  127  130 1   
   130  127  134 1   
   131  128  129 2   
   132  128  140 1   
   133  130  131 1   
   134  130  132 1   
   135  130  135 1   
   136  131  137 1   
   137  131  138 1   
   138  131  139 1   
   139  132  136 1   
   140  140  141 1   
   141  140  149 1   
   142  141  142 1   
   143  141  144 1   
   144  141  150 1   
   145  142  143 2   
   146  142  162 1   
   147  144  145 1   
   148  144  151 1   
   149  144  152 1   
   150  145  146 1   
   151  145  153 1   
   152  145  154 1   
   153  146  147 1   
   154  146  155 1   
   155  146  156 1   
   156  147  148 1   
   157  147  157 1   
   158  147  158 1   
   159  148  159 1   
   160  148  160 1   
   161  148  161 1   
   162  162  163 1   
   163  162  171 1   
   164  163  164 1   
   165  163  166 1   
   166  163  172 1   
   167  164  165 2   
   168  164  177 1   
   169  166  167 1   
   170  166  173 1   
   171  166  174 1   
   172  167  168 1   
   173  167  175 1   
   174  167  176 1   
   175  168  169 1   
   176  168  170 1   
   177  177  178 1   
   178  177  182 1   
   179  178  179 1   
   180  178  180 1   
   181  178  181 1   
   182  184  185 1   
   183  184  186 1   
   184  187  188 1   
   185  187  189 1   
@<TRIPOS>SUBSTRUCTURE
     1 MOL         1 TEMP              0 ****  ****    0 ROOT
