@<TRIPOS>MOLECULE
MOL
  183   181     1     0     0
SMALL
resp


@<TRIPOS>ATOM
      1 C1         -1.2440    1.5410    6.5030 c3        1 MOL     -0.332787
      2 C2         -1.5470    1.6350    4.9880 c         1 MOL      0.698528
      3 O1         -0.7480    2.1450    4.1790 o         1 MOL     -0.590074
      4 H1         -2.0540    1.0110    7.0030 hc        1 MOL      0.081045
      5 H2         -0.3090    1.0010    6.6540 hc        1 MOL      0.081045
      6 H3         -1.1550    2.5450    6.9190 hc        1 MOL      0.081045
      7 N1         -2.7690    1.2440    4.5450 n         1 MOL     -0.656174
      8 C3         -3.2060    1.0820    3.2030 c3        1 MOL      0.235035
      9 C4         -3.7300    2.4750    2.7870 c         1 MOL      0.641302
     10 O2         -4.7350    2.9340    3.3640 o         1 MOL     -0.611293
     11 C5         -4.2800   -0.0660    3.1160 c3        1 MOL     -0.211762
     12 C6         -4.7150   -0.3370    1.6890 c         1 MOL      0.685517
     13 O3         -5.7570   -1.0360    1.4990 o         1 MOL     -0.667944
     14 O4         -4.1660    0.2730    0.6880 o         1 MOL     -0.667944
     15 H4         -3.3140    0.8440    5.2920 hn        1 MOL      0.309162
     16 H5         -2.3470    0.7890    2.6010 h1        1 MOL      0.066012
     17 H6         -5.1620    0.2480    3.6530 hc        1 MOL      0.043115
     18 H7         -3.9260   -1.0110    3.5350 hc        1 MOL      0.043115
     19 N2         -3.1190    3.1230    1.8230 n         1 MOL     -0.327190
     20 C7         -3.3480    4.5530    1.4640 c3        1 MOL     -0.355598
     21 C8         -4.5380    4.6310    0.4890 c         1 MOL      0.785469
     22 O5         -5.4160    5.3860    0.6680 o         1 MOL     -0.595840
     23 C9         -2.1190    5.2360    0.8820 c3        1 MOL      0.247481
     24 C10        -1.0030    5.1610    1.9000 c3        1 MOL      0.136171
     25 C11        -2.4510    6.6710    0.5080 c3        1 MOL     -0.482462
     26 C12         0.3540    5.6490    1.3360 c3        1 MOL     -0.274813
     27 H8         -2.4000    2.6150    1.3140 hn        1 MOL      0.113667
     28 H9         -3.6490    5.1340    2.3390 h1        1 MOL      0.123541
     29 H10        -1.7500    4.6320    0.0490 hc        1 MOL      0.027350
     30 H11        -0.8010    4.1320    2.1860 hc        1 MOL      0.003944
     31 H12        -1.0650    5.7920    2.7860 hc        1 MOL      0.003944
     32 H13        -2.7360    7.1610    1.4370 hc        1 MOL      0.110283
     33 H14        -1.6300    7.1000   -0.0690 hc        1 MOL      0.110283
     34 H15        -3.3710    6.6780   -0.0780 hc        1 MOL      0.110283
     35 H16         0.4950    5.1840    0.3640 hc        1 MOL      0.053995
     36 H17         0.3060    6.7410    1.3190 hc        1 MOL      0.053995
     37 H18         1.1360    5.2770    1.9980 hc        1 MOL      0.053995
     38 N3         -4.4860    3.7500   -0.5180 n         1 MOL     -0.564554
     39 C13        -5.3660    3.7260   -1.7230 c3        1 MOL      0.056636
     40 C14        -6.5390    2.7320   -1.6050 c         1 MOL      0.434287
     41 O6         -7.5270    2.7420   -2.3550 o         1 MOL     -0.559525
     42 C15        -4.5860    3.6270   -3.0250 c3        1 MOL     -0.111381
     43 C16        -3.4810    2.5830   -3.0300 c         1 MOL      0.737321
     44 O7         -3.6360    1.6180   -2.2710 o         1 MOL     -0.694448
     45 O8         -2.6190    2.6110   -3.9230 o         1 MOL     -0.694448
     46 H19        -3.6170    3.2460   -0.5850 hn        1 MOL      0.275309
     47 H20        -5.9350    4.6600   -1.7680 h1        1 MOL      0.074211
     48 H21        -4.1910    4.5630   -3.4210 hc        1 MOL      0.025596
     49 H22        -5.3380    3.5180   -3.8190 hc        1 MOL      0.025596
     50 N4         -6.5600    1.9200   -0.5020 n         1 MOL     -0.127678
     51 C17        -7.7010    1.2240    0.0540 c3        1 MOL     -0.302024
     52 C18        -8.0210   -0.2140   -0.5740 c         1 MOL      0.600810
     53 O9         -9.1370   -0.6600   -0.6040 o         1 MOL     -0.630955
     54 H23        -5.7660    1.9580    0.1250 hn        1 MOL      0.219504
     55 H24        -8.6040    1.8100   -0.0380 h1        1 MOL      0.119117
     56 H25        -7.5370    1.0560    1.1220 h1        1 MOL      0.119117
     57 N5         -7.0550   -0.9020   -1.1320 n         1 MOL     -0.175827
     58 C19        -7.2240   -2.1150   -1.9260 c3        1 MOL     -0.025415
     59 C20        -7.0850   -3.3620   -1.1380 c         1 MOL      0.479528
     60 O10        -7.4010   -4.4400   -1.6940 o         1 MOL     -0.609166
     61 C21        -6.2520   -2.1110   -3.1090 c3        1 MOL     -0.154042
     62 C22        -4.8860   -1.7350   -2.6220 c         1 MOL      0.546149
     63 O11        -4.2840   -0.8280   -3.2090 o         1 MOL     -0.634430
     64 O12        -4.3890   -2.1970   -1.5620 o         1 MOL     -0.634430
     65 H26        -6.1320   -0.5080   -1.0460 hn        1 MOL      0.174769
     66 H27        -8.1930   -2.1860   -2.4130 h1        1 MOL      0.092984
     67 H28        -6.5790   -1.3070   -3.7670 hc        1 MOL      0.053031
     68 H29        -6.2090   -3.0630   -3.6460 hc        1 MOL      0.053031
     69 N6         -6.7290   -3.2580    0.1120 n         1 MOL     -0.263790
     70 C23        -6.3890   -4.3930    1.0010 c3        1 MOL      0.000147
     71 C24        -4.9140   -4.7220    1.1870 c         1 MOL      0.550639
     72 O13        -4.7580   -5.7000    1.8910 o         1 MOL     -0.610279
     73 H30        -6.4260   -2.3700    0.4890 hn        1 MOL      0.204044
     74 H31        -6.9640   -5.2410    0.6200 h1        1 MOL      0.039943
     75 H32        -6.7020   -4.2520    2.0330 h1        1 MOL      0.039943
     76 N7         -3.9150   -4.0200    0.6320 n         1 MOL     -0.107010
     77 C25        -2.5150   -4.4460    0.8070 c3        1 MOL     -0.096247
     78 C26        -1.5940   -3.2910    1.0330 c         1 MOL      0.787041
     79 O14        -1.8910   -2.1180    0.8010 o         1 MOL     -0.777132
     80 C27        -2.1460   -5.3290   -0.4610 c3        1 MOL     -0.040174
     81 C28        -2.4960   -4.9530   -1.8490 c3        1 MOL     -0.024120
     82 C29        -1.7900   -3.6890   -2.4380 c         1 MOL      0.527624
     83 N8         -1.6210   -3.6040   -3.7370 n         1 MOL     -0.715280
     84 O15        -1.4200   -2.7340   -1.7450 o         1 MOL     -0.538680
     85 H33        -4.1230   -3.1700    0.1270 hn        1 MOL      0.065512
     86 H34        -2.4640   -4.9890    1.7520 h1        1 MOL      0.046984
     87 H35        -2.7140   -6.2480   -0.3100 hc        1 MOL      0.009284
     88 H36        -1.0700   -5.5010   -0.4940 hc        1 MOL      0.009284
     89 H37        -3.5830   -4.9700   -1.9280 hc        1 MOL      0.031873
     90 H38        -2.1880   -5.7550   -2.5190 hc        1 MOL      0.031873
     91 H39        -2.0230   -4.3980   -4.2260 hn        1 MOL      0.345697
     92 H40        -1.0050   -2.9370   -4.1810 hn        1 MOL      0.345697
     93 N9         -0.4530   -3.5670    1.5710 n         1 MOL     -0.453168
     94 C30         0.6150   -2.5890    1.7030 c3        1 MOL     -0.003198
     95 C31         1.6970   -2.9400    0.7300 c         1 MOL      0.421654
     96 O16         2.2730   -4.0640    0.7920 o         1 MOL     -0.572314
     97 C32         1.0580   -2.6280    3.1820 c3        1 MOL      0.200985
     98 C33         2.4020   -2.0310    3.5460 c3        1 MOL     -0.272012
     99 C34        -0.0810   -2.0240    3.9930 c3        1 MOL     -0.272012
    100 H41        -0.2710   -4.5250    1.8350 hn        1 MOL      0.267386
    101 H42         0.2820   -1.5640    1.5110 h1        1 MOL      0.148589
    102 H43         1.1730   -3.6540    3.5160 hc        1 MOL     -0.016880
    103 H44         2.4370   -0.9510    3.4670 hc        1 MOL      0.059015
    104 H45         2.5620   -2.2890    4.5910 hc        1 MOL      0.059015
    105 H46         3.0750   -2.5370    2.8500 hc        1 MOL      0.059015
    106 H47        -0.1110   -0.9620    3.7410 hc        1 MOL      0.059015
    107 H48        -1.0630   -2.4550    3.8140 hc        1 MOL      0.059015
    108 H49         0.1250   -2.2440    5.0360 hc        1 MOL      0.059015
    109 N10         1.9250   -2.1370   -0.3450 n         1 MOL     -0.139930
    110 C35         3.1130   -2.3430   -1.2500 c3        1 MOL      0.178952
    111 C36         4.3880   -1.7730   -0.6200 c         1 MOL      0.083747
    112 O17         4.2240   -0.9670    0.3360 o         1 MOL     -0.070183
    113 C37         2.7660   -1.8570   -2.6370 c3        1 MOL     -0.525266
    114 C38         2.9550   -0.3230   -2.6970 c         1 MOL      0.717791
    115 N11         1.9110    0.4390   -2.5390 n         1 MOL     -0.830319
    116 O18         4.0660    0.1640   -2.8460 o         1 MOL     -0.512490
    117 H50         1.2390   -1.4190   -0.5170 hn        1 MOL      0.034226
    118 H51         3.2990   -3.4110   -1.2450 h1        1 MOL      0.045933
    119 H52         1.7560   -2.1970   -2.8410 hc        1 MOL      0.165640
    120 H53         3.4640   -2.2830   -3.3560 hc        1 MOL      0.165640
    121 H54         1.0770    0.1810   -2.0150 hn        1 MOL      0.419909
    122 H55         2.0090    1.3860   -2.8620 hn        1 MOL      0.419909
    123 N12         5.6570   -2.1030   -0.9690 n         1 MOL     -0.231480
    124 C39         6.8490   -1.7000   -0.2430 c3        1 MOL     -0.137352
    125 C40         7.0970   -0.1390   -0.1660 c         1 MOL      0.840112
    126 O19         7.6300    0.3890    0.8060 o         1 MOL     -0.589518
    127 C41         8.0620   -2.3980   -0.8860 c3        1 MOL     -0.333137
    128 C42         9.4800   -1.9740   -0.3870 ca        1 MOL      0.095073
    129 C43        10.0900   -2.7800    0.5660 ca        1 MOL     -0.196388
    130 C44        10.1880   -0.9000   -0.9490 ca        1 MOL     -0.196388
    131 C45        11.4260   -2.4930    1.0850 ca        1 MOL     -0.183961
    132 C46        11.4640   -0.6310   -0.4910 ca        1 MOL     -0.183961
    133 C47        12.1030   -1.4580    0.4430 ca        1 MOL      0.307415
    134 O20        13.4250   -1.1400    0.7560 oh        1 MOL     -0.587919
    135 H56         5.8020   -2.5680   -1.8520 hn        1 MOL      0.266385
    136 H57         6.7900   -2.1300    0.7600 h1        1 MOL      0.148657
    137 H58         8.0340   -2.1950   -1.9580 hc        1 MOL      0.112459
    138 H59         7.8960   -3.4620   -0.7350 hc        1 MOL      0.112459
    139 H60         9.4940   -3.6280    0.8790 ha        1 MOL      0.144351
    140 H61         9.7190   -0.3100   -1.7240 ha        1 MOL      0.144351
    141 H62        11.9700   -3.2560    1.6320 ha        1 MOL      0.122939
    142 H63        12.0330    0.1980   -0.8930 ha        1 MOL      0.122939
    143 H64        13.7080   -0.2500    0.5300 ho        1 MOL      0.409979
    144 N13         6.4600    0.5680   -1.1410 n         1 MOL     -0.528177
    145 C48         6.3010    2.0350   -0.9080 c3        1 MOL      0.039113
    146 C49         5.3630    2.3610    0.2080 c         1 MOL      0.302942
    147 O21         5.6570    3.3090    0.9210 o         1 MOL     -0.519512
    148 C50         5.7920    2.7970   -2.1320 c3        1 MOL      0.072792
    149 C51         6.7920    2.6500   -3.3660 c3        1 MOL     -0.302393
    150 C52         6.3330    3.5800   -4.5160 c         1 MOL      0.713513
    151 O22         7.1450    4.3990   -5.0380 o         1 MOL     -0.739243
    152 O23         5.2180    3.3540   -5.0330 o         1 MOL     -0.739243
    153 H65         5.8190    0.0640   -1.7330 hn        1 MOL      0.194406
    154 H66         7.2850    2.4560   -0.6620 h1        1 MOL      0.100985
    155 H67         5.7630    3.8490   -1.8330 hc        1 MOL      0.014693
    156 H68         4.7710    2.5380   -2.3760 hc        1 MOL      0.014693
    157 H69         6.7770    1.6100   -3.6640 hc        1 MOL      0.051637
    158 H70         7.8070    2.8690   -3.0150 hc        1 MOL      0.051637
    159 N14         4.1980    1.7060    0.4340 n         1 MOL     -0.138956
    160 C53         3.4290    1.7840    1.6860 c3        1 MOL     -0.209975
    161 C54         4.1050    1.1250    2.9640 c         1 MOL      0.529051
    162 O24         3.8260    1.6150    4.0710 o         1 MOL     -0.577367
    163 C55         2.0540    1.1180    1.4090 c3        1 MOL      0.133553
    164 C56         1.2350    1.8920    0.3830 c3        1 MOL      0.017416
    165 C57        -0.0360    1.1820    0.1870 c         1 MOL      0.583317
    166 O25        -1.1510    1.7160    0.2400 o         1 MOL     -0.601614
    167 O26         0.0510    0.0490   -0.4140 o         1 MOL     -0.601614
    168 H71         4.0480    0.9220   -0.1720 hn        1 MOL      0.131115
    169 H72         3.3450    2.8480    1.9380 h1        1 MOL      0.138791
    170 H73         1.4830    1.1490    2.3460 hc        1 MOL      0.021807
    171 H74         2.2380    0.0700    1.1810 hc        1 MOL      0.021807
    172 H75         1.7260    2.0040   -0.5820 hc        1 MOL     -0.013892
    173 H76         1.0860    2.8880    0.7940 hc        1 MOL     -0.013892
    174 N15         4.9790    0.1000    2.8640 n         1 MOL     -0.059239
    175 C58         5.7060   -0.4800    3.9650 c3        1 MOL     -0.196921
    176 H77         5.0060   -0.9670    4.6450 h1        1 MOL      0.068859
    177 H78         6.4150   -1.2160    3.5860 h1        1 MOL      0.068859
    178 H79         6.2450    0.3020    4.4990 h1        1 MOL      0.068859
    179 H80         4.9710   -0.3390    1.9550 hn        1 MOL     -0.016517
    180 Ca1        -2.5100   -0.4300   -1.1600 Ca        1 MOL      1.707317
    181 O27        -1.2250    0.3630   -3.3900 oh        1 MOL     -0.914967
    182 H81        -0.9890   -0.1150   -4.1870 ho        1 MOL      0.412843
    183 H82        -1.6330    1.1700   -3.7010 ho        1 MOL      0.412843
@<TRIPOS>BOND
     1    1    2 1   
     2    1    4 1   
     3    1    5 1   
     4    1    6 1   
     5    2    3 2   
     6    2    7 1   
     7    7    8 1   
     8    7   15 1   
     9    8    9 1   
    10    8   11 1   
    11    8   16 1   
    12    9   10 2   
    13    9   19 1   
    14   11   12 1   
    15   11   17 1   
    16   11   18 1   
    17   12   13 1   
    18   12   14 1   
    19   19   20 1   
    20   19   27 1   
    21   20   21 1   
    22   20   23 1   
    23   20   28 1   
    24   21   22 2   
    25   21   38 1   
    26   23   24 1   
    27   23   25 1   
    28   23   29 1   
    29   24   26 1   
    30   24   30 1   
    31   24   31 1   
    32   25   32 1   
    33   25   33 1   
    34   25   34 1   
    35   26   35 1   
    36   26   36 1   
    37   26   37 1   
    38   38   39 1   
    39   38   46 1   
    40   39   40 1   
    41   39   42 1   
    42   39   47 1   
    43   40   41 2   
    44   40   50 1   
    45   42   43 1   
    46   42   48 1   
    47   42   49 1   
    48   43   44 1   
    49   43   45 1   
    50   50   51 1   
    51   50   54 1   
    52   51   52 1   
    53   51   55 1   
    54   51   56 1   
    55   52   53 2   
    56   52   57 1   
    57   57   58 1   
    58   57   65 1   
    59   58   59 1   
    60   58   61 1   
    61   58   66 1   
    62   59   60 2   
    63   59   69 1   
    64   61   62 1   
    65   61   67 1   
    66   61   68 1   
    67   62   63 1   
    68   62   64 1   
    69   69   70 1   
    70   69   73 1   
    71   70   71 1   
    72   70   74 1   
    73   70   75 1   
    74   71   72 2   
    75   71   76 1   
    76   76   77 1   
    77   76   85 1   
    78   77   78 1   
    79   77   80 1   
    80   77   86 1   
    81   78   79 2   
    82   78   93 1   
    83   80   81 1   
    84   80   87 1   
    85   80   88 1   
    86   81   82 1   
    87   81   89 1   
    88   81   90 1   
    89   82   83 1   
    90   82   84 2   
    91   83   91 1   
    92   83   92 1   
    93   93   94 1   
    94   93  100 1   
    95   94   95 1   
    96   94   97 1   
    97   94  101 1   
    98   95   96 2   
    99   95  109 1   
   100   97   98 1   
   101   97   99 1   
   102   97  102 1   
   103   98  103 1   
   104   98  104 1   
   105   98  105 1   
   106   99  106 1   
   107   99  107 1   
   108   99  108 1   
   109  109  110 1   
   110  109  117 1   
   111  110  111 1   
   112  110  113 1   
   113  110  118 1   
   114  111  112 2   
   115  111  123 1   
   116  113  114 1   
   117  113  119 1   
   118  113  120 1   
   119  114  115 1   
   120  114  116 2   
   121  115  121 1   
   122  115  122 1   
   123  123  124 1   
   124  123  135 1   
   125  124  125 1   
   126  124  127 1   
   127  124  136 1   
   128  125  126 2   
   129  125  144 1   
   130  127  128 1   
   131  127  137 1   
   132  127  138 1   
   133  128  129 ar  
   134  128  130 ar  
   135  129  131 ar  
   136  129  139 1   
   137  130  132 ar  
   138  130  140 1   
   139  131  133 ar  
   140  131  141 1   
   141  132  133 ar  
   142  132  142 1   
   143  133  134 1   
   144  134  143 1   
   145  144  145 1   
   146  144  153 1   
   147  145  146 1   
   148  145  148 1   
   149  145  154 1   
   150  146  147 2   
   151  146  159 1   
   152  148  149 1   
   153  148  155 1   
   154  148  156 1   
   155  149  150 1   
   156  149  157 1   
   157  149  158 1   
   158  150  151 1   
   159  150  152 1   
   160  159  160 1   
   161  159  168 1   
   162  160  161 1   
   163  160  163 1   
   164  160  169 1   
   165  161  162 2   
   166  161  174 1   
   167  163  164 1   
   168  163  170 1   
   169  163  171 1   
   170  164  165 1   
   171  164  172 1   
   172  164  173 1   
   173  165  166 1   
   174  165  167 1   
   175  174  175 1   
   176  174  179 1   
   177  175  176 1   
   178  175  177 1   
   179  175  178 1   
   180  181  182 1   
   181  181  183 1   
@<TRIPOS>SUBSTRUCTURE
     1 MOL         1 TEMP              0 ****  ****    0 ROOT
