@<TRIPOS>MOLECULE
MOL
  189   185     1     0     0
SMALL
resp


@<TRIPOS>ATOM
      1 C1         -0.6560    2.7360    6.5120 c3        1 MOL     -0.328178
      2 C2         -0.8870    2.4310    4.9970 c         1 MOL      0.692790
      3 O1          0.0140    2.7100    4.2020 o         1 MOL     -0.610365
      4 H1         -0.2720    1.8440    7.0080 hc        1 MOL      0.083169
      5 H2          0.0660    3.5470    6.6140 hc        1 MOL      0.083169
      6 H3         -1.6000    3.0290    6.9720 hc        1 MOL      0.083169
      7 N1         -2.0680    1.9270    4.5960 n         1 MOL     -0.635868
      8 C3         -2.3090    1.5950    3.2010 c3        1 MOL      0.124855
      9 C4         -2.4960    2.9690    2.3830 c         1 MOL      0.632253
     10 O2         -3.4920    3.5740    2.4880 o         1 MOL     -0.542482
     11 C5         -3.5060    0.6330    3.1670 c3        1 MOL     -0.216910
     12 C6         -3.8450    0.0870    1.7770 c         1 MOL      0.972161
     13 O3         -4.8530   -0.6610    1.6140 o         1 MOL     -0.806150
     14 O4         -3.0050    0.2740    0.8410 o         1 MOL     -0.806150
     15 H4         -2.8270    1.6520    5.1960 hn        1 MOL      0.350439
     16 H5         -1.4450    1.0610    2.8000 h1        1 MOL     -0.047779
     17 H6         -4.3980    1.1720    3.4950 hc        1 MOL      0.046318
     18 H7         -3.4380   -0.2490    3.8010 hc        1 MOL      0.046318
     19 N2         -1.4680    3.3860    1.6120 n         1 MOL     -0.252800
     20 C7         -1.2590    4.7590    1.0900 c3        1 MOL     -0.244350
     21 C8         -2.3000    5.1760    0.0720 c         1 MOL      0.511165
     22 O5         -2.3170    6.3640   -0.3350 o         1 MOL     -0.646458
     23 C9          0.2320    4.9030    0.6290 c3        1 MOL     -0.152843
     24 C10         0.6450    6.3400    0.2780 c3        1 MOL      0.266760
     25 C11         2.1420    6.2550    0.3160 c3        1 MOL     -0.262162
     26 C12         2.5270    7.5980   -0.3580 c3        1 MOL      0.041618
     27 N3          2.5830    8.7240    0.6300 n4        1 MOL     -0.450281
     28 H8         -0.7620    2.6890    1.4290 hn        1 MOL      0.260219
     29 H9         -1.3500    5.4680    1.9180 h1        1 MOL      0.102899
     30 H10         0.3960    4.3620   -0.3050 hc        1 MOL      0.100319
     31 H11         0.8510    4.4150    1.3750 hc        1 MOL      0.100319
     32 H12         0.3320    7.0570    1.0340 hc        1 MOL     -0.002395
     33 H13         0.2570    6.6040   -0.7070 hc        1 MOL     -0.002395
     34 H14         2.5510    5.4650   -0.3230 hc        1 MOL      0.094548
     35 H15         2.4860    6.1950    1.3480 hc        1 MOL      0.094548
     36 H16         1.8270    7.8630   -1.1510 hx        1 MOL      0.079501
     37 H17         3.4640    7.4720   -0.9000 hx        1 MOL      0.079501
     38 H18         3.0380    8.4560    1.4940 hn        1 MOL      0.346713
     39 H19         3.0470    9.5730    0.3340 hn        1 MOL      0.346713
     40 H20         1.6990    9.1450    0.8990 hn        1 MOL      0.346713
     41 N4         -2.9680    4.2650   -0.5680 n         1 MOL     -0.100586
     42 C13        -3.8720    4.4010   -1.7410 c3        1 MOL     -0.029510
     43 C14        -5.2090    3.6450   -1.4740 c         1 MOL      0.300622
     44 O6         -6.0800    3.6800   -2.3580 o         1 MOL     -0.480506
     45 C15        -3.1320    3.9340   -3.0330 c3        1 MOL     -0.158911
     46 C16        -2.3010    2.7070   -2.8810 c         1 MOL      0.830983
     47 O7         -2.2540    2.0560   -1.8060 o         1 MOL     -0.722506
     48 O8         -1.3860    2.4660   -3.7150 o         1 MOL     -0.722506
     49 H21        -2.7250    3.2910   -0.4180 hn        1 MOL      0.138846
     50 H22        -4.2090    5.4300   -1.8210 h1        1 MOL      0.114995
     51 H23        -2.4510    4.6930   -3.4150 hc        1 MOL      0.050759
     52 H24        -3.8450    3.7500   -3.8370 hc        1 MOL      0.050759
     53 N5         -5.4760    3.0740   -0.3050 n         1 MOL     -0.021309
     54 C17        -6.6940    2.4460    0.2040 c3        1 MOL     -0.016141
     55 C18        -7.2960    1.4550   -0.7860 c         1 MOL      0.529418
     56 O9         -8.3630    1.7350   -1.3060 o         1 MOL     -0.536663
     57 H25        -4.6870    3.1950    0.3170 hn        1 MOL      0.023650
     58 H26        -7.3900    3.1820    0.6190 h1        1 MOL      0.042353
     59 H27        -6.3880    1.8070    1.0360 h1        1 MOL      0.042353
     60 N6         -6.6250    0.2550   -0.9400 n         1 MOL     -0.393173
     61 C19        -7.0570   -0.7900   -1.8670 c3        1 MOL      0.180191
     62 C20        -7.1420   -2.1950   -1.2410 c         1 MOL      0.465134
     63 O10        -7.7310   -3.1180   -1.8580 o         1 MOL     -0.556051
     64 C21        -6.0250   -0.6780   -3.0490 c3        1 MOL     -0.357598
     65 C22        -4.5470   -0.8830   -2.5880 c         1 MOL      0.819908
     66 O11        -4.3010   -1.5170   -1.5640 o         1 MOL     -0.750979
     67 O12        -3.6300   -0.2940   -3.2580 o         1 MOL     -0.750979
     68 H28        -5.9320    0.0370   -0.2380 hn        1 MOL      0.077810
     69 H29        -8.0670   -0.6070   -2.2470 h1        1 MOL      0.067603
     70 H30        -6.1030    0.3400   -3.4350 hc        1 MOL      0.098915
     71 H31        -6.3300   -1.4620   -3.7430 hc        1 MOL      0.098915
     72 N7         -6.7410   -2.3660    0.0330 n         1 MOL     -0.451822
     73 C23        -6.9560   -3.6190    0.7760 c3        1 MOL      0.022474
     74 C24        -5.6260   -4.3320    0.9940 c         1 MOL      0.423971
     75 O13        -5.7030   -5.4210    1.5750 o         1 MOL     -0.559342
     76 H32        -6.1180   -1.6970    0.4590 hn        1 MOL      0.395543
     77 H33        -7.4870   -4.2850    0.1030 h1        1 MOL      0.073063
     78 H34        -7.5160   -3.4330    1.6940 h1        1 MOL      0.073063
     79 N8         -4.5110   -3.8380    0.4180 n         1 MOL     -0.132003
     80 C25        -3.2710   -4.5430    0.4880 c3        1 MOL     -0.124736
     81 C26        -2.0720   -3.6500    0.7460 c         1 MOL      0.646409
     82 O14        -2.2450   -2.4600    0.6010 o         1 MOL     -0.578101
     83 C27        -3.0230   -5.3560   -0.7710 c3        1 MOL      0.301770
     84 C28        -3.9640   -6.5930   -0.9270 c3        1 MOL     -0.507278
     85 O15        -3.2240   -4.5980   -1.9770 oh        1 MOL     -0.572745
     86 H35        -4.5010   -2.9020    0.0160 hn        1 MOL      0.242737
     87 H36        -3.3390   -5.1730    1.3790 h1        1 MOL      0.075987
     88 H37        -1.9920   -5.6900   -0.7670 h1        1 MOL      0.038543
     89 H38        -4.1100   -4.2400   -1.8510 ho        1 MOL      0.383551
     90 H39        -3.8470   -7.1790   -0.0200 hc        1 MOL      0.137453
     91 H40        -4.9980   -6.2780   -1.0110 hc        1 MOL      0.137453
     92 H41        -3.5910   -7.0990   -1.8260 hc        1 MOL      0.137453
     93 N9         -0.9470   -4.2110    1.2150 n         1 MOL     -0.633943
     94 C29         0.2770   -3.4880    1.5660 c3        1 MOL      0.197184
     95 C30         1.4200   -4.0040    0.6600 c         1 MOL      0.388953
     96 O16         1.7520   -5.1570    0.7040 o         1 MOL     -0.514081
     97 C31         0.5870   -3.6980    3.0460 c3        1 MOL     -0.018521
     98 C32        -0.4030   -2.8600    3.8720 c3        1 MOL      0.090027
     99 C33         2.0590   -3.3270    3.3910 c3        1 MOL     -0.207768
    100 C34        -0.4050   -1.3160    3.6760 c3        1 MOL     -0.104791
    101 H42        -1.0000   -5.2000    1.4030 hn        1 MOL      0.314969
    102 H43         0.2090   -2.4090    1.4750 h1        1 MOL      0.091439
    103 H44         0.4090   -4.7350    3.3350 hc        1 MOL      0.028266
    104 H45        -0.1670   -3.0020    4.9300 hc        1 MOL     -0.014929
    105 H46        -1.4350   -3.1950    3.8060 hc        1 MOL     -0.014929
    106 H47         2.2830   -3.4630    4.4510 hc        1 MOL      0.050065
    107 H48         2.7530   -4.0720    2.9810 hc        1 MOL      0.050065
    108 H49         2.3360   -2.3490    2.9830 hc        1 MOL      0.050065
    109 H50        -0.7510   -1.0370    2.6770 hc        1 MOL      0.043186
    110 H51        -1.2590   -1.0050    4.2810 hc        1 MOL      0.043186
    111 H52         0.5570   -0.9170    3.9950 hc        1 MOL      0.043186
    112 N10         2.0160   -3.0670   -0.1620 n         1 MOL      0.065443
    113 C35         3.1250   -3.3670   -1.1040 c3        1 MOL     -0.153101
    114 C36         4.5090   -3.1140   -0.4150 c         1 MOL      0.318071
    115 O17         4.5800   -2.7580    0.7500 o         1 MOL     -0.336049
    116 C37         3.0550   -2.6160   -2.4220 c3        1 MOL      0.266641
    117 C38         1.7700   -2.8680   -3.2470 c3        1 MOL     -0.423482
    118 O18         2.9680   -1.2470   -2.1390 oh        1 MOL     -0.601268
    119 H53         1.7030   -2.1100   -0.1650 hn        1 MOL     -0.195419
    120 H54         3.0900   -4.4420   -1.2600 h1        1 MOL      0.081587
    121 H55         3.9500   -2.9370   -2.9570 h1        1 MOL      0.045386
    122 H56         2.0400   -1.0870   -1.9230 ho        1 MOL      0.428685
    123 H57         1.5540   -3.9390   -3.2620 hc        1 MOL      0.113106
    124 H58         0.9120   -2.3800   -2.7960 hc        1 MOL      0.113106
    125 H59         1.7530   -2.4880   -4.2600 hc        1 MOL      0.113106
    126 N11         5.5680   -3.3040   -1.1810 n         1 MOL     -0.107972
    127 C39         7.0030   -3.2460   -0.7150 c3        1 MOL     -0.380675
    128 C40         7.4860   -1.8840   -0.2650 c         1 MOL      0.594554
    129 O19         7.9870   -1.7300    0.8190 o         1 MOL     -0.491314
    130 C41         8.0490   -3.8660   -1.7190 c3        1 MOL      0.359275
    131 C42         8.0310   -5.3520   -2.0840 c3        1 MOL     -0.318041
    132 O20         7.8590   -3.1960   -2.8840 oh        1 MOL     -0.648521
    133 H60         5.4090   -3.4140   -2.1790 hn        1 MOL      0.222581
    134 H61         6.9540   -3.7980    0.2240 h1        1 MOL      0.175777
    135 H62         9.0750   -3.6490   -1.4390 h1        1 MOL      0.024755
    136 H63         8.4540   -3.6310   -3.5000 ho        1 MOL      0.419487
    137 H64         8.1990   -5.9610   -1.1880 hc        1 MOL      0.088918
    138 H65         7.0240   -5.5330   -2.4600 hc        1 MOL      0.088918
    139 H66         8.7810   -5.5160   -2.8480 hc        1 MOL      0.088918
    140 N12         6.9670   -0.8590   -1.0300 n         1 MOL     -0.476645
    141 C43         7.0230    0.6360   -0.6910 c3        1 MOL     -0.015735
    142 C44         6.2400    0.9700    0.5910 c         1 MOL      0.428055
    143 O21         6.7820    1.7370    1.3720 o         1 MOL     -0.526993
    144 C45         6.3910    1.4560   -1.8800 c3        1 MOL     -0.110675
    145 C46         6.1630    2.9960   -1.6460 c3        1 MOL      0.163057
    146 C47         5.8330    3.7180   -2.9500 c3        1 MOL     -0.071092
    147 C48         7.0300    3.8600   -3.8500 c3        1 MOL     -0.160435
    148 N13         8.0820    4.7260   -3.2240 n4        1 MOL     -0.258773
    149 H67         6.4920   -1.1410   -1.8760 hn        1 MOL      0.299735
    150 H68         8.0450    0.9570   -0.5260 h1        1 MOL      0.103627
    151 H69         5.3730    1.1040   -2.0340 hc        1 MOL      0.054123
    152 H70         6.8780    1.2400   -2.8300 hc        1 MOL      0.054123
    153 H71         6.9430    3.4790   -1.0570 hc        1 MOL     -0.034401
    154 H72         5.2530    3.1320   -1.0690 hc        1 MOL     -0.034401
    155 H73         5.5110    4.7400   -2.7490 hc        1 MOL      0.069520
    156 H74         4.9080    3.3200   -3.3560 hc        1 MOL      0.069520
    157 H75         6.6060    4.3260   -4.7430 hx        1 MOL      0.134142
    158 H76         7.4480    2.9160   -4.2010 hx        1 MOL      0.134142
    159 H77         8.4680    4.3250   -2.3840 hn        1 MOL      0.276895
    160 H78         8.8470    4.8490   -3.8620 hn        1 MOL      0.276895
    161 H79         7.7200    5.6600   -3.0770 hn        1 MOL      0.276895
    162 N14         5.0500    0.4490    0.7450 n         1 MOL     -0.179691
    163 C49         4.2090    0.7330    1.9230 c3        1 MOL     -0.227831
    164 C50         4.7020    0.0280    3.2230 c         1 MOL      0.529795
    165 O22         4.6890    0.6480    4.2370 o         1 MOL     -0.546825
    166 C51         2.7730    0.2770    1.5500 c3        1 MOL      0.102987
    167 C52         2.1950    0.9520    0.3860 c3        1 MOL      0.120115
    168 C53         0.8000    0.4650   -0.0220 c         1 MOL      0.546041
    169 O23         0.6650   -0.6540   -0.4960 o         1 MOL     -0.631248
    170 O24        -0.1780    1.2660   -0.0460 o         1 MOL     -0.631248
    171 H80         4.6680   -0.1200   -0.0100 hn        1 MOL      0.211617
    172 H81         4.2160    1.8100    2.0890 h1        1 MOL      0.105052
    173 H82         2.0900    0.3570    2.3960 hc        1 MOL      0.021265
    174 H83         2.7890   -0.7780    1.2610 hc        1 MOL      0.021265
    175 H84         2.8140    0.7930   -0.4920 hc        1 MOL     -0.045482
    176 H85         2.1030    2.0190    0.5860 hc        1 MOL     -0.045482
    177 N15         5.2000   -1.2040    3.1720 n         1 MOL     -0.059465
    178 C54         5.6580   -1.9540    4.3240 c3        1 MOL     -0.289805
    179 H86         5.5540   -3.0210    4.1280 h1        1 MOL      0.105501
    180 H87         6.7050   -1.7210    4.5170 h1        1 MOL      0.105501
    181 H88         5.0600   -1.6850    5.1950 h1        1 MOL      0.105501
    182 H89         5.2320   -1.7110    2.2900 hn        1 MOL      0.119711
    183 Ca1        -1.8830   -0.3550   -1.2140 Ca        1 MOL      1.772801
    184 O25        -0.3850   -0.0310   -3.7920 oh        1 MOL     -0.817296
    185 H90        -0.8690    0.7160   -4.1530 ho        1 MOL      0.390246
    186 H91         0.3450   -0.1590   -4.3920 ho        1 MOL      0.390246
    187 O26        -1.4770   -2.5940   -2.5570 oh        1 MOL     -0.817296
    188 H92        -1.0380   -2.7360   -3.3980 ho        1 MOL      0.390246
    189 H93        -1.7240   -3.4650   -2.2620 ho        1 MOL      0.390246
@<TRIPOS>BOND
     1    1    2 1   
     2    1    4 1   
     3    1    5 1   
     4    1    6 1   
     5    2    3 2   
     6    2    7 1   
     7    7    8 1   
     8    7   15 1   
     9    8    9 1   
    10    8   11 1   
    11    8   16 1   
    12    9   10 2   
    13    9   19 1   
    14   11   12 1   
    15   11   17 1   
    16   11   18 1   
    17   12   13 1   
    18   12   14 1   
    19   19   20 1   
    20   19   28 1   
    21   20   21 1   
    22   20   23 1   
    23   20   29 1   
    24   21   22 2   
    25   21   41 1   
    26   23   24 1   
    27   23   30 1   
    28   23   31 1   
    29   24   25 1   
    30   24   32 1   
    31   24   33 1   
    32   25   26 1   
    33   25   34 1   
    34   25   35 1   
    35   26   27 1   
    36   26   36 1   
    37   26   37 1   
    38   27   38 1   
    39   27   39 1   
    40   27   40 1   
    41   41   42 1   
    42   41   49 1   
    43   42   43 1   
    44   42   45 1   
    45   42   50 1   
    46   43   44 2   
    47   43   53 1   
    48   45   46 1   
    49   45   51 1   
    50   45   52 1   
    51   46   47 1   
    52   46   48 1   
    53   53   54 1   
    54   53   57 1   
    55   54   55 1   
    56   54   58 1   
    57   54   59 1   
    58   55   56 2   
    59   55   60 1   
    60   60   61 1   
    61   60   68 1   
    62   61   62 1   
    63   61   64 1   
    64   61   69 1   
    65   62   63 2   
    66   62   72 1   
    67   64   65 1   
    68   64   70 1   
    69   64   71 1   
    70   65   66 1   
    71   65   67 1   
    72   72   73 1   
    73   72   76 1   
    74   73   74 1   
    75   73   77 1   
    76   73   78 1   
    77   74   75 2   
    78   74   79 1   
    79   79   80 1   
    80   79   86 1   
    81   80   81 1   
    82   80   83 1   
    83   80   87 1   
    84   81   82 2   
    85   81   93 1   
    86   83   84 1   
    87   83   85 1   
    88   83   88 1   
    89   84   90 1   
    90   84   91 1   
    91   84   92 1   
    92   85   89 1   
    93   93   94 1   
    94   93  101 1   
    95   94   95 1   
    96   94   97 1   
    97   94  102 1   
    98   95   96 2   
    99   95  112 1   
   100   97   98 1   
   101   97   99 1   
   102   97  103 1   
   103   98  100 1   
   104   98  104 1   
   105   98  105 1   
   106   99  106 1   
   107   99  107 1   
   108   99  108 1   
   109  100  109 1   
   110  100  110 1   
   111  100  111 1   
   112  112  113 1   
   113  112  119 1   
   114  113  114 1   
   115  113  116 1   
   116  113  120 1   
   117  114  115 2   
   118  114  126 1   
   119  116  117 1   
   120  116  118 1   
   121  116  121 1   
   122  117  123 1   
   123  117  124 1   
   124  117  125 1   
   125  118  122 1   
   126  126  127 1   
   127  126  133 1   
   128  127  128 1   
   129  127  130 1   
   130  127  134 1   
   131  128  129 2   
   132  128  140 1   
   133  130  131 1   
   134  130  132 1   
   135  130  135 1   
   136  131  137 1   
   137  131  138 1   
   138  131  139 1   
   139  132  136 1   
   140  140  141 1   
   141  140  149 1   
   142  141  142 1   
   143  141  144 1   
   144  141  150 1   
   145  142  143 2   
   146  142  162 1   
   147  144  145 1   
   148  144  151 1   
   149  144  152 1   
   150  145  146 1   
   151  145  153 1   
   152  145  154 1   
   153  146  147 1   
   154  146  155 1   
   155  146  156 1   
   156  147  148 1   
   157  147  157 1   
   158  147  158 1   
   159  148  159 1   
   160  148  160 1   
   161  148  161 1   
   162  162  163 1   
   163  162  171 1   
   164  163  164 1   
   165  163  166 1   
   166  163  172 1   
   167  164  165 2   
   168  164  177 1   
   169  166  167 1   
   170  166  173 1   
   171  166  174 1   
   172  167  168 1   
   173  167  175 1   
   174  167  176 1   
   175  168  169 1   
   176  168  170 1   
   177  177  178 1   
   178  177  182 1   
   179  178  179 1   
   180  178  180 1   
   181  178  181 1   
   182  184  185 1   
   183  184  186 1   
   184  187  188 1   
   185  187  189 1   
@<TRIPOS>SUBSTRUCTURE
     1 MOL         1 TEMP              0 ****  ****    0 ROOT
