@<TRIPOS>MOLECULE
MOL
  189   185     1     0     0
SMALL
resp


@<TRIPOS>ATOM
      1 C1         -0.3920    2.7250   -4.6800 c3        1 MOL     -0.226359
      2 C2          0.2850    2.4720   -3.3640 c         1 MOL      0.498732
      3 O1         -0.2390    2.7820   -2.2990 o         1 MOL     -0.525941
      4 H1         -1.4630    2.5570   -4.5760 hc        1 MOL      0.063637
      5 H2         -0.2140    3.7560   -4.9890 hc        1 MOL      0.063637
      6 H3          0.0100    2.0460   -5.4330 hc        1 MOL      0.063637
      7 N1          1.5690    1.9880   -3.4100 n         1 MOL     -0.538597
      8 C3          2.3520    1.6450   -2.2440 c3        1 MOL      0.350159
      9 C4          2.9740    2.8370   -1.5570 c         1 MOL      0.336282
     10 O2          4.1970    3.0630   -1.4700 o         1 MOL     -0.459816
     11 C5          3.3160    0.5630   -2.6320 c3        1 MOL     -0.359000
     12 C6          4.2090    0.0290   -1.4130 c         1 MOL      0.748294
     13 O3          3.8070    0.2330   -0.2550 o         1 MOL     -0.681348
     14 O4          5.2750   -0.5890   -1.6630 o         1 MOL     -0.681348
     15 H4          1.9300    1.7040   -4.3100 hn        1 MOL      0.308978
     16 H5          1.7020    1.1730   -1.5050 h1        1 MOL      0.006580
     17 H6          3.9400    0.9400   -3.4520 hc        1 MOL      0.073978
     18 H7          2.7080   -0.3120   -2.8770 hc        1 MOL      0.073978
     19 N2          2.1010    3.6740   -1.0690 n         1 MOL     -0.473159
     20 C7          2.5380    5.0300   -0.6520 c3        1 MOL      0.284665
     21 C8          3.3640    5.0180    0.5880 c         1 MOL      0.370833
     22 O5          4.1820    5.9620    0.7720 o         1 MOL     -0.567912
     23 C9          1.3650    5.9510   -0.6790 c3        1 MOL     -0.444693
     24 C10         0.7710    6.3970   -2.0650 c3        1 MOL      0.414656
     25 C11        -0.0190    7.6990   -1.8300 c3        1 MOL     -0.104685
     26 C12        -0.3840    8.3440   -3.2010 c3        1 MOL     -0.020095
     27 N3         -1.4390    7.6600   -3.9770 n4        1 MOL     -0.446453
     28 H8          1.1310    3.4740   -1.2700 hn        1 MOL      0.340890
     29 H9          3.2470    5.4700   -1.3490 h1        1 MOL      0.051874
     30 H10         1.7540    6.8870   -0.2750 hc        1 MOL      0.097461
     31 H11         0.6060    5.5290   -0.0190 hc        1 MOL      0.097461
     32 H12         0.0650    5.6100   -2.3430 hc        1 MOL     -0.073128
     33 H13         1.5280    6.5230   -2.8380 hc        1 MOL     -0.073128
     34 H14         0.6100    8.4070   -1.3000 hc        1 MOL      0.056522
     35 H15        -0.9650    7.4430   -1.3550 hc        1 MOL      0.056522
     36 H16         0.4780    8.5710   -3.8290 hx        1 MOL      0.092847
     37 H17        -0.8500    9.2610   -2.8470 hx        1 MOL      0.092847
     38 H18        -2.1730    7.4380   -3.3170 hn        1 MOL      0.357738
     39 H19        -1.7750    8.3260   -4.6510 hn        1 MOL      0.357738
     40 H20        -1.0850    6.8710   -4.5030 hn        1 MOL      0.357738
     41 N4          3.4390    3.9000    1.3400 n         1 MOL     -0.167279
     42 C13         4.3550    3.7430    2.4450 c3        1 MOL      0.013884
     43 C14         5.5510    2.8520    2.1360 c         1 MOL      0.427897
     44 O6          6.4730    2.6530    2.8830 o         1 MOL     -0.548473
     45 C15         3.6880    3.3530    3.7560 c3        1 MOL     -0.182176
     46 C16         2.5590    2.2370    3.5640 c         1 MOL      0.720436
     47 O7          1.8240    1.9710    4.5260 o         1 MOL     -0.681469
     48 O8          2.4110    1.5560    2.5050 o         1 MOL     -0.681469
     49 H21         2.6230    3.3170    1.2790 hn        1 MOL      0.185195
     50 H22         4.7480    4.7440    2.6530 h1        1 MOL      0.094704
     51 H23         3.1660    4.2450    4.1070 hc        1 MOL      0.052236
     52 H24         4.4470    3.1310    4.5040 hc        1 MOL      0.052236
     53 N5          5.6120    2.3680    0.8790 n         1 MOL     -0.103522
     54 C17         6.8240    1.8190    0.2880 c3        1 MOL     -0.036729
     55 C18         7.3060    0.4340    0.7370 c         1 MOL      0.404874
     56 O9          8.4990    0.0840    0.5540 o         1 MOL     -0.576038
     57 H25         4.8280    2.5360    0.2790 hn        1 MOL      0.054997
     58 H26         7.6340    2.5470    0.3490 h1        1 MOL      0.064572
     59 H27         6.7320    1.7840   -0.7990 h1        1 MOL      0.064572
     60 N6          6.3760   -0.2470    1.4130 n         1 MOL     -0.084571
     61 C19         6.7140   -1.5270    2.0620 c3        1 MOL     -0.096055
     62 C20         6.7740   -2.8010    1.1530 c         1 MOL      0.492375
     63 O10         7.1420   -3.8620    1.6320 o         1 MOL     -0.558872
     64 C21         5.6520   -1.8390    3.2330 c3        1 MOL     -0.203690
     65 C22         4.1950   -1.8600    2.7840 c         1 MOL      0.736948
     66 O11         3.8890   -2.4270    1.6920 o         1 MOL     -0.721906
     67 O12         3.3430   -1.1280    3.3230 o         1 MOL     -0.721906
     68 H28         5.4330    0.1080    1.3230 hn        1 MOL      0.134008
     69 H29         7.7220   -1.5790    2.4520 h1        1 MOL      0.118723
     70 H30         5.8230   -1.0740    3.9940 hc        1 MOL      0.066821
     71 H31         5.8660   -2.8240    3.6470 hc        1 MOL      0.066821
     72 N7          6.7460   -2.6050   -0.1490 n         1 MOL     -0.236769
     73 C23         6.9230   -3.6160   -1.2270 c3        1 MOL     -0.319466
     74 C24         5.5250   -4.1930   -1.6210 c         1 MOL      0.601927
     75 O13         5.4190   -5.0720   -2.4680 o         1 MOL     -0.589753
     76 H32         6.5390   -1.6590   -0.4320 hn        1 MOL      0.304750
     77 H33         7.6560   -4.3600   -0.9190 h1        1 MOL      0.146841
     78 H34         7.1310   -3.0140   -2.1180 h1        1 MOL      0.146841
     79 N8          4.4420   -3.7560   -0.9410 n         1 MOL     -0.157651
     80 C25         3.1000   -4.3850   -1.2070 c3        1 MOL     -0.116413
     81 C26         2.0160   -3.3410   -1.2670 c         1 MOL      0.607010
     82 O14         2.2320   -2.1900   -0.8160 o         1 MOL     -0.687562
     83 C27         2.7220   -5.4440   -0.1330 c3        1 MOL      0.436632
     84 C28         3.4880   -6.7310   -0.2500 c3        1 MOL     -0.372610
     85 O15         2.9260   -4.9650    1.1930 oh        1 MOL     -0.615121
     86 H35         4.4730   -3.0380   -0.2390 hn        1 MOL      0.125555
     87 H36         3.0820   -4.8430   -2.1890 h1        1 MOL      0.066791
     88 H37         1.6610   -5.6140   -0.3040 h1        1 MOL     -0.024844
     89 H38         3.1500   -4.0400    1.0560 ho        1 MOL      0.384749
     90 H39         3.1630   -7.4740    0.4670 hc        1 MOL      0.090401
     91 H40         3.2430   -7.2140   -1.1960 hc        1 MOL      0.090401
     92 H41         4.5570   -6.5340   -0.3050 hc        1 MOL      0.090401
     93 N9          0.8370   -3.6890   -1.7200 n         1 MOL     -0.513161
     94 C29        -0.3570   -2.8950   -1.7920 c3        1 MOL      0.062639
     95 C30        -1.5040   -3.6290   -1.1320 c         1 MOL      0.429664
     96 O16        -1.5930   -4.8790   -1.3850 o         1 MOL     -0.569935
     97 C31        -0.7540   -2.6780   -3.2580 c3        1 MOL      0.282252
     98 C32         0.3120   -1.7670   -3.9440 c3        1 MOL     -0.090859
     99 C33        -2.1590   -2.0190   -3.4730 c3        1 MOL     -0.439081
    100 C34         0.2540   -2.0480   -5.4510 c3        1 MOL     -0.212905
    101 H42         0.7520   -4.6100   -2.1340 hn        1 MOL      0.284274
    102 H43        -0.2710   -1.9160   -1.3260 h1        1 MOL      0.038277
    103 H44        -0.7940   -3.6560   -3.7280 hc        1 MOL     -0.004090
    104 H45         1.3340   -2.0180   -3.6710 hc        1 MOL      0.078122
    105 H46         0.1350   -0.7150   -3.7130 hc        1 MOL      0.078122
    106 H47        -2.2430   -1.1300   -2.8460 hc        1 MOL      0.088017
    107 H48        -2.3910   -1.7680   -4.5060 hc        1 MOL      0.088017
    108 H49        -2.9040   -2.7830   -3.2530 hc        1 MOL      0.088017
    109 H50         1.0460   -1.4430   -5.8750 hc        1 MOL      0.047395
    110 H51         0.4880   -3.0960   -5.6410 hc        1 MOL      0.047395
    111 H52        -0.7260   -1.8390   -5.8850 hc        1 MOL      0.047395
    112 N10        -2.3770   -2.8840   -0.4520 n         1 MOL     -0.046426
    113 C35        -3.6400   -3.3060    0.2130 c3        1 MOL      0.009181
    114 C36        -4.9090   -2.9380   -0.5840 c         1 MOL      0.291606
    115 O17        -4.8270   -2.0800   -1.4470 o         1 MOL     -0.383404
    116 C37        -3.6950   -2.8540    1.6980 c3        1 MOL      0.192887
    117 C38        -2.5150   -2.9360    2.5700 c3        1 MOL     -0.299628
    118 O18        -4.2000   -1.4990    1.8310 oh        1 MOL     -0.496136
    119 H53        -2.1000   -1.9430   -0.2290 hn        1 MOL      0.168781
    120 H54        -3.6500   -4.3920    0.2790 h1        1 MOL      0.042494
    121 H55        -4.4500   -3.4610    2.1830 h1        1 MOL      0.006878
    122 H56        -4.0490   -1.1240    2.7030 ho        1 MOL      0.378244
    123 H57        -1.8010   -2.2010    2.2020 hc        1 MOL      0.092306
    124 H58        -2.8650   -2.6720    3.5700 hc        1 MOL      0.092306
    125 H59        -2.0300   -3.9120    2.5010 hc        1 MOL      0.092306
    126 N11        -6.0430   -3.3870   -0.1200 n         1 MOL     -0.109935
    127 C39        -7.3530   -2.9540   -0.4590 c3        1 MOL     -0.232621
    128 C40        -7.6640   -1.5040   -0.2360 c         1 MOL      0.445586
    129 O19        -8.3140   -0.8610   -1.0420 o         1 MOL     -0.525972
    130 C41        -8.4770   -3.7510    0.3740 c3        1 MOL      0.276979
    131 C42        -8.5750   -5.2100    0.0940 c3        1 MOL     -0.330520
    132 O20        -8.2640   -3.6530    1.7830 oh        1 MOL     -0.615672
    133 H60        -5.9810   -4.1570    0.5240 hn        1 MOL      0.211378
    134 H61        -7.4490   -3.1310   -1.5240 h1        1 MOL      0.146205
    135 H62        -9.3880   -3.2020    0.1400 h1        1 MOL      0.079382
    136 H63        -8.2340   -4.5560    2.0930 ho        1 MOL      0.401847
    137 H64        -8.9300   -5.3690   -0.9230 hc        1 MOL      0.097731
    138 H65        -7.5850   -5.6690    0.1560 hc        1 MOL      0.097731
    139 H66        -9.2700   -5.6970    0.7790 hc        1 MOL      0.097731
    140 N12        -7.1550   -0.8790    0.8170 n         1 MOL     -0.118724
    141 C43        -7.2530    0.5620    1.1280 c3        1 MOL     -0.082570
    142 C44        -6.3470    1.4020    0.2240 c         1 MOL      0.379833
    143 O21        -6.6690    2.5550   -0.0260 o         1 MOL     -0.573692
    144 C45        -7.0630    0.8610    2.6220 c3        1 MOL      0.120052
    145 C46        -6.9970    2.3120    3.0680 c3        1 MOL     -0.124555
    146 C47        -7.2460    2.4130    4.5780 c3        1 MOL      0.063214
    147 C48        -6.9000    3.7710    5.1210 c3        1 MOL      0.090960
    148 N13        -7.4840    3.8890    6.4380 n4        1 MOL     -0.234906
    149 H67        -6.6380   -1.4120    1.4970 hn        1 MOL      0.097698
    150 H68        -8.2310    0.9280    0.8120 h1        1 MOL      0.114510
    151 H69        -6.0830    0.5000    2.9510 hc        1 MOL     -0.004124
    152 H70        -7.8550    0.3550    3.1650 hc        1 MOL     -0.004124
    153 H71        -7.8840    2.7940    2.6770 hc        1 MOL      0.047549
    154 H72        -6.0310    2.7100    2.7470 hc        1 MOL      0.047549
    155 H73        -6.6830    1.6610    5.1260 hc        1 MOL      0.002529
    156 H74        -8.3020    2.1770    4.7180 hc        1 MOL      0.002529
    157 H75        -7.4140    4.5110    4.5150 hx        1 MOL      0.060364
    158 H76        -5.8350    3.9830    5.2050 hx        1 MOL      0.060364
    159 H77        -7.2980    3.0370    6.9430 hn        1 MOL      0.259590
    160 H78        -6.9910    4.6390    6.9010 hn        1 MOL      0.259590
    161 H79        -8.4850    3.9840    6.3680 hn        1 MOL      0.259590
    162 N14        -5.2910    0.8660   -0.3590 n         1 MOL      0.301783
    163 C49        -4.2970    1.5810   -1.1360 c3        1 MOL     -0.522105
    164 C50        -4.7190    1.7080   -2.6170 c         1 MOL      0.695187
    165 O22        -4.5390    2.6900   -3.2600 o         1 MOL     -0.578631
    166 C51        -2.8490    1.0200   -0.8950 c3        1 MOL      0.087172
    167 C52        -2.2230    1.3980    0.4650 c3        1 MOL     -0.062656
    168 C53        -0.7900    0.7960    0.5700 c         1 MOL      0.542769
    169 O23         0.3220    1.4120    0.6820 o         1 MOL     -0.680264
    170 O24        -0.6890   -0.4710    0.5240 o         1 MOL     -0.680264
    171 H80        -5.1320   -0.0740   -0.0310 hn        1 MOL     -0.177460
    172 H81        -4.3300    2.5790   -0.6950 h1        1 MOL      0.152909
    173 H82        -2.2350    1.4640   -1.6820 hc        1 MOL      0.060484
    174 H83        -2.7920   -0.0480   -1.0700 hc        1 MOL      0.060484
    175 H84        -2.8670    1.0140    1.2500 hc        1 MOL      0.027032
    176 H85        -2.1590    2.4640    0.7040 hc        1 MOL      0.027032
    177 N15        -5.3420    0.6400   -3.1560 n         1 MOL     -0.325893
    178 C54        -6.1870    0.7150   -4.3530 c3        1 MOL     -0.162925
    179 H86        -7.2070    0.4290   -4.0950 h1        1 MOL      0.086810
    180 H87        -6.1830    1.7350   -4.7380 h1        1 MOL      0.086810
    181 H88        -5.8020    0.0370   -5.1140 h1        1 MOL      0.086810
    182 H89        -5.4060   -0.2170   -2.6240 hn        1 MOL      0.246185
    183 Ca1         1.8650   -0.6650    1.2430 Ca        1 MOL      1.796197
    184 O25         0.6630   -3.0430    1.7540 oh        1 MOL     -0.890322
    185 H90        -0.1670   -3.1860    2.2000 ho        1 MOL      0.419470
    186 H91         1.3080   -3.5140    2.2730 ho        1 MOL      0.419470
    187 O26         0.6260   -0.5970    4.0420 oh        1 MOL     -0.890322
    188 H92         1.2480    0.0820    3.8010 ho        1 MOL      0.419470
    189 H93         0.3740   -0.3870    4.9380 ho        1 MOL      0.419470
@<TRIPOS>BOND
     1    1    2 1   
     2    1    4 1   
     3    1    5 1   
     4    1    6 1   
     5    2    3 2   
     6    2    7 1   
     7    7    8 1   
     8    7   15 1   
     9    8    9 1   
    10    8   11 1   
    11    8   16 1   
    12    9   10 2   
    13    9   19 1   
    14   11   12 1   
    15   11   17 1   
    16   11   18 1   
    17   12   13 1   
    18   12   14 1   
    19   19   20 1   
    20   19   28 1   
    21   20   21 1   
    22   20   23 1   
    23   20   29 1   
    24   21   22 2   
    25   21   41 1   
    26   23   24 1   
    27   23   30 1   
    28   23   31 1   
    29   24   25 1   
    30   24   32 1   
    31   24   33 1   
    32   25   26 1   
    33   25   34 1   
    34   25   35 1   
    35   26   27 1   
    36   26   36 1   
    37   26   37 1   
    38   27   38 1   
    39   27   39 1   
    40   27   40 1   
    41   41   42 1   
    42   41   49 1   
    43   42   43 1   
    44   42   45 1   
    45   42   50 1   
    46   43   44 2   
    47   43   53 1   
    48   45   46 1   
    49   45   51 1   
    50   45   52 1   
    51   46   47 1   
    52   46   48 1   
    53   53   54 1   
    54   53   57 1   
    55   54   55 1   
    56   54   58 1   
    57   54   59 1   
    58   55   56 2   
    59   55   60 1   
    60   60   61 1   
    61   60   68 1   
    62   61   62 1   
    63   61   64 1   
    64   61   69 1   
    65   62   63 2   
    66   62   72 1   
    67   64   65 1   
    68   64   70 1   
    69   64   71 1   
    70   65   66 1   
    71   65   67 1   
    72   72   73 1   
    73   72   76 1   
    74   73   74 1   
    75   73   77 1   
    76   73   78 1   
    77   74   75 2   
    78   74   79 1   
    79   79   80 1   
    80   79   86 1   
    81   80   81 1   
    82   80   83 1   
    83   80   87 1   
    84   81   82 2   
    85   81   93 1   
    86   83   84 1   
    87   83   85 1   
    88   83   88 1   
    89   84   90 1   
    90   84   91 1   
    91   84   92 1   
    92   85   89 1   
    93   93   94 1   
    94   93  101 1   
    95   94   95 1   
    96   94   97 1   
    97   94  102 1   
    98   95   96 2   
    99   95  112 1   
   100   97   98 1   
   101   97   99 1   
   102   97  103 1   
   103   98  100 1   
   104   98  104 1   
   105   98  105 1   
   106   99  106 1   
   107   99  107 1   
   108   99  108 1   
   109  100  109 1   
   110  100  110 1   
   111  100  111 1   
   112  112  113 1   
   113  112  119 1   
   114  113  114 1   
   115  113  116 1   
   116  113  120 1   
   117  114  115 2   
   118  114  126 1   
   119  116  117 1   
   120  116  118 1   
   121  116  121 1   
   122  117  123 1   
   123  117  124 1   
   124  117  125 1   
   125  118  122 1   
   126  126  127 1   
   127  126  133 1   
   128  127  128 1   
   129  127  130 1   
   130  127  134 1   
   131  128  129 2   
   132  128  140 1   
   133  130  131 1   
   134  130  132 1   
   135  130  135 1   
   136  131  137 1   
   137  131  138 1   
   138  131  139 1   
   139  132  136 1   
   140  140  141 1   
   141  140  149 1   
   142  141  142 1   
   143  141  144 1   
   144  141  150 1   
   145  142  143 2   
   146  142  162 1   
   147  144  145 1   
   148  144  151 1   
   149  144  152 1   
   150  145  146 1   
   151  145  153 1   
   152  145  154 1   
   153  146  147 1   
   154  146  155 1   
   155  146  156 1   
   156  147  148 1   
   157  147  157 1   
   158  147  158 1   
   159  148  159 1   
   160  148  160 1   
   161  148  161 1   
   162  162  163 1   
   163  162  171 1   
   164  163  164 1   
   165  163  166 1   
   166  163  172 1   
   167  164  165 2   
   168  164  177 1   
   169  166  167 1   
   170  166  173 1   
   171  166  174 1   
   172  167  168 1   
   173  167  175 1   
   174  167  176 1   
   175  168  169 1   
   176  168  170 1   
   177  177  178 1   
   178  177  182 1   
   179  178  179 1   
   180  178  180 1   
   181  178  181 1   
   182  184  185 1   
   183  184  186 1   
   184  187  188 1   
   185  187  189 1   
@<TRIPOS>SUBSTRUCTURE
     1 MOL         1 TEMP              0 ****  ****    0 ROOT
