@<TRIPOS>MOLECULE
MOL
  183   181     1     0     0
SMALL
resp


@<TRIPOS>ATOM
      1 C1         -0.3140    0.6090    6.2970 c3        1 MOL     -0.164882
      2 C2         -0.7380    0.9170    4.8010 c         1 MOL      0.739239
      3 O1          0.0930    1.2910    3.9850 o         1 MOL     -0.585296
      4 H1         -0.5920   -0.4150    6.5490 hc        1 MOL      0.028188
      5 H2          0.7640    0.7290    6.4020 hc        1 MOL      0.028188
      6 H3         -0.8240    1.2990    6.9690 hc        1 MOL      0.028188
      7 N1         -2.0020    0.6940    4.4790 n         1 MOL     -0.677587
      8 C3         -2.5810    0.9960    3.1350 c3        1 MOL      0.366830
      9 C4         -2.9370    2.4800    3.0040 c         1 MOL      0.382504
     10 O2         -3.8170    2.8710    3.7430 o         1 MOL     -0.568833
     11 C5         -3.7410    0.0700    2.9830 c3        1 MOL     -0.229434
     12 C6         -4.3310    0.1280    1.5950 c         1 MOL      0.770357
     13 O3         -5.5200   -0.2500    1.5510 o         1 MOL     -0.660010
     14 O4         -3.7800    0.6350    0.6050 o         1 MOL     -0.660010
     15 H4         -2.7070    0.3820    5.1440 hn        1 MOL      0.318240
     16 H5         -1.8330    0.7230    2.3880 h1        1 MOL     -0.030691
     17 H6         -4.5490    0.3230    3.6650 hc        1 MOL      0.039310
     18 H7         -3.4440   -0.9330    3.2610 hc        1 MOL      0.039310
     19 N2         -2.4100    3.0940    1.9510 n         1 MOL     -0.049171
     20 C7         -2.4990    4.5220    1.6110 c3        1 MOL     -0.429726
     21 C8         -3.3790    4.7860    0.3660 c         1 MOL      0.870295
     22 O5         -3.7280    5.9180    0.0980 o         1 MOL     -0.613373
     23 C9         -1.0250    5.1060    1.5930 c3        1 MOL      0.408762
     24 C10        -0.3190    5.0070    2.9170 c3        1 MOL      0.159486
     25 C11        -0.9390    6.5340    1.0020 c3        1 MOL     -0.369691
     26 C12         1.2030    5.2750    2.9940 c3        1 MOL     -0.253333
     27 H8         -1.7520    2.5180    1.4360 hn        1 MOL      0.116681
     28 H9         -3.0010    5.0030    2.4440 h1        1 MOL      0.103447
     29 H10        -0.4500    4.4780    0.9140 hc        1 MOL     -0.046682
     30 H11        -0.5280    4.0270    3.3490 hc        1 MOL     -0.068245
     31 H12        -0.7000    5.7260    3.6390 hc        1 MOL     -0.068245
     32 H13        -1.3510    6.4130    0.0030 hc        1 MOL      0.070011
     33 H14        -1.6010    7.2010    1.5670 hc        1 MOL      0.070011
     34 H15         0.0760    6.9230    0.9970 hc        1 MOL      0.070011
     35 H16         1.6500    4.3700    2.5780 hc        1 MOL      0.056945
     36 H17         1.5430    6.1390    2.4240 hc        1 MOL      0.056945
     37 H18         1.5740    5.3350    4.0260 hc        1 MOL      0.056945
     38 N3         -3.9530    3.7480   -0.2260 n         1 MOL     -0.669968
     39 C13        -4.9600    3.8960   -1.3290 c3        1 MOL      0.034335
     40 C14        -6.2340    3.0440   -1.1550 c         1 MOL      0.481105
     41 O6         -7.0590    3.0220   -2.0220 o         1 MOL     -0.495103
     42 C15        -4.3240    3.8450   -2.6810 c3        1 MOL     -0.175493
     43 C16        -3.5060    2.5920   -3.0330 c         1 MOL      0.816338
     44 O7         -3.7650    1.4520   -2.5840 o         1 MOL     -0.727593
     45 O8         -2.4850    2.7010   -3.7740 o         1 MOL     -0.727593
     46 H19        -3.5630    2.8320   -0.0470 hn        1 MOL      0.320524
     47 H20        -5.3720    4.8990   -1.2220 h1        1 MOL      0.096976
     48 H21        -3.6240    4.6750   -2.8030 hc        1 MOL      0.036393
     49 H22        -5.0830    3.8980   -3.4650 hc        1 MOL      0.036393
     50 N4         -6.4800    2.3700   -0.0240 n         1 MOL     -0.285375
     51 C17        -7.7930    1.9150    0.2710 c3        1 MOL     -0.228675
     52 C18        -8.2140    0.5940   -0.5260 c         1 MOL      0.524252
     53 O9         -9.3770    0.4300   -0.8810 o         1 MOL     -0.609222
     54 H23        -5.7880    2.2460    0.7020 hn        1 MOL      0.274942
     55 H24        -8.5520    2.6780    0.0960 h1        1 MOL      0.098584
     56 H25        -7.7410    1.5780    1.3070 h1        1 MOL      0.098584
     57 N5         -7.2620   -0.3090   -0.7700 n         1 MOL     -0.170279
     58 C19        -7.5110   -1.4720   -1.5770 c3        1 MOL      0.126694
     59 C20        -7.3460   -2.7490   -0.7400 c         1 MOL      0.411931
     60 O10        -7.5660   -3.8190   -1.2230 o         1 MOL     -0.539990
     61 C21        -6.5410   -1.5550   -2.7470 c3        1 MOL     -0.136881
     62 C22        -5.0730   -1.6010   -2.4330 c         1 MOL      0.866097
     63 O11        -4.2270   -1.2640   -3.2600 o         1 MOL     -0.796877
     64 O12        -4.6200   -1.8540   -1.3040 o         1 MOL     -0.796877
     65 H26        -6.3650   -0.1750   -0.3280 hn        1 MOL      0.040327
     66 H27        -8.5330   -1.5860   -1.9540 h1        1 MOL      0.062534
     67 H28        -6.7090   -0.6980   -3.3870 hc        1 MOL      0.018479
     68 H29        -6.8320   -2.4680   -3.2780 hc        1 MOL      0.018479
     69 N6         -7.0160   -2.7100    0.5590 n         1 MOL     -0.384441
     70 C23        -6.8830   -3.9110    1.4570 c3        1 MOL     -0.023700
     71 C24        -5.5050   -4.5490    1.3230 c         1 MOL      0.471967
     72 O13        -5.3900   -5.6700    1.8160 o         1 MOL     -0.603980
     73 H30        -6.7060   -1.8310    0.9390 hn        1 MOL      0.244792
     74 H31        -7.6700   -4.6440    1.2750 h1        1 MOL      0.070574
     75 H32        -6.9970   -3.5560    2.4890 h1        1 MOL      0.070574
     76 N7         -4.4520   -3.9860    0.6770 n         1 MOL     -0.103755
     77 C25        -3.1010   -4.5410    0.5990 c3        1 MOL     -0.016838
     78 C26        -2.0690   -3.4400    0.7970 c         1 MOL      0.542270
     79 O14        -2.2930   -2.2360    0.7950 o         1 MOL     -0.661879
     80 C27        -2.9220   -5.3830   -0.7680 c3        1 MOL      0.021064
     81 C28        -3.0700   -4.6480   -2.1260 c3        1 MOL     -0.140095
     82 C29        -1.9400   -3.6140   -2.4650 c         1 MOL      0.596038
     83 N8         -1.4100   -3.8470   -3.6230 n         1 MOL     -0.730389
     84 O15        -1.5110   -2.7470   -1.7410 o         1 MOL     -0.545368
     85 H33        -4.5510   -3.0030    0.4600 hn        1 MOL      0.165097
     86 H34        -2.9780   -5.2230    1.4400 h1        1 MOL      0.034739
     87 H35        -3.5790   -6.2490   -0.8120 hc        1 MOL      0.000079
     88 H36        -1.8820   -5.7290   -0.7750 hc        1 MOL      0.000079
     89 H37        -4.0050   -4.1080   -2.3170 hc        1 MOL      0.054349
     90 H38        -3.0270   -5.4670   -2.8420 hc        1 MOL      0.054349
     91 H39        -1.7210   -4.5670   -4.2570 hn        1 MOL      0.343226
     92 H40        -0.7210   -3.2030   -3.9790 hn        1 MOL      0.343226
     93 N9         -0.8910   -3.9270    1.0720 n         1 MOL     -0.364262
     94 C30         0.3670   -3.1530    1.2880 c3        1 MOL      0.084260
     95 C31         1.4270   -3.6610    0.3290 c         1 MOL      0.439801
     96 O16         1.8860   -4.7580    0.4900 o         1 MOL     -0.558657
     97 C32         0.7750   -3.3850    2.7120 c3        1 MOL      0.386050
     98 C33         2.1830   -2.8700    2.9540 c3        1 MOL     -0.453118
     99 C34        -0.2370   -2.8310    3.7000 c3        1 MOL     -0.453118
    100 H41        -0.8230   -4.9250    1.2030 hn        1 MOL      0.246020
    101 H42         0.2360   -2.0850    1.1040 h1        1 MOL      0.112231
    102 H43         0.8240   -4.4690    2.7950 hc        1 MOL     -0.070375
    103 H44         2.8430   -3.5050    2.3690 hc        1 MOL      0.094826
    104 H45         2.2440   -1.8280    2.6510 hc        1 MOL      0.094826
    105 H46         2.3300   -2.9840    4.0350 hc        1 MOL      0.094826
    106 H47        -1.2570   -2.9760    3.3430 hc        1 MOL      0.094826
    107 H48        -0.0170   -3.3340    4.6480 hc        1 MOL      0.094826
    108 H49         0.0300   -1.7830    3.8510 hc        1 MOL      0.094826
    109 N10         1.8450   -2.6350   -0.4510 n         1 MOL     -0.213921
    110 C35         2.9910   -2.7040   -1.3710 c3        1 MOL      0.189831
    111 C36         4.2900   -2.0790   -0.6820 c         1 MOL      0.387079
    112 O17         4.1400   -1.4020    0.3670 o         1 MOL     -0.281321
    113 C37         2.5600   -2.0800   -2.7940 c3        1 MOL     -0.306337
    114 C38         3.0380   -0.6770   -3.0070 c         1 MOL      0.663884
    115 N11         2.3140    0.2570   -2.5530 n         1 MOL     -0.722790
    116 O18         4.0890   -0.4530   -3.5430 o         1 MOL     -0.620831
    117 H50         1.4690   -1.7090   -0.3460 hn        1 MOL      0.036098
    118 H51         3.2970   -3.7420   -1.4960 h1        1 MOL      0.026881
    119 H52         1.4850   -2.1940   -2.9640 hc        1 MOL      0.072700
    120 H53         3.1440   -2.6810   -3.4860 hc        1 MOL      0.072700
    121 H54         1.5800   -0.1460   -1.9900 hn        1 MOL      0.397331
    122 H55         2.5520    1.2220   -2.7150 hn        1 MOL      0.397331
    123 N12         5.4710   -2.2570   -1.2740 n         1 MOL     -0.626397
    124 C39         6.6870   -1.7860   -0.6840 c3        1 MOL      0.419741
    125 C40         6.7880   -0.2660   -0.4490 c         1 MOL      0.428357
    126 O19         7.2920    0.0970    0.6170 o         1 MOL     -0.515543
    127 C41         7.8180   -2.4190   -1.5190 c3        1 MOL     -0.204722
    128 C42         9.1720   -2.1550   -0.8370 ca        1 MOL      0.131614
    129 C43         9.5540   -2.9050    0.3100 ca        1 MOL     -0.289609
    130 C44        10.0370   -1.2130   -1.3820 ca        1 MOL     -0.289609
    131 C45        10.7080   -2.5390    0.9710 ca        1 MOL     -0.133357
    132 C46        11.2430   -0.8540   -0.6790 ca        1 MOL     -0.133357
    133 C47        11.5850   -1.6060    0.4450 ca        1 MOL      0.258860
    134 O20        12.8570   -1.4830    0.9880 oh        1 MOL     -0.506443
    135 H56         5.4250   -2.6040   -2.2160 hn        1 MOL      0.322626
    136 H57         6.8010   -2.2700    0.2920 h1        1 MOL      0.020923
    137 H58         7.8430   -1.9220   -2.4910 hc        1 MOL      0.057731
    138 H59         7.6400   -3.4860   -1.6610 hc        1 MOL      0.057731
    139 H60         8.9210   -3.6790    0.7160 ha        1 MOL      0.168143
    140 H61         9.7320   -0.6800   -2.2700 ha        1 MOL      0.168143
    141 H62        10.9300   -2.9990    1.9180 ha        1 MOL      0.122700
    142 H63        11.9380   -0.1710   -1.1490 ha        1 MOL      0.122700
    143 H64        13.3480   -0.8430    0.4670 ho        1 MOL      0.350902
    144 N13         6.3400    0.5610   -1.3650 n         1 MOL     -0.405942
    145 C48         6.1660    2.0150   -1.2240 c3        1 MOL      0.023828
    146 C49         5.3330    2.4180    0.0220 c         1 MOL      0.259294
    147 O21         5.3120    3.4970    0.6250 o         1 MOL     -0.494172
    148 C50         5.5890    2.5960   -2.5260 c3        1 MOL     -0.025713
    149 C51         5.0760    4.0900   -2.4330 c3        1 MOL     -0.230484
    150 C52         4.7930    4.6520   -3.8000 c         1 MOL      0.744415
    151 O22         3.6190    4.9440   -4.1930 o         1 MOL     -0.748476
    152 O23         5.7830    4.9070   -4.5260 o         1 MOL     -0.748476
    153 H65         6.2010    0.1480   -2.2750 hn        1 MOL      0.281125
    154 H66         7.1490    2.4760   -1.1550 h1        1 MOL      0.098964
    155 H67         4.7730    2.0030   -2.9380 hc        1 MOL      0.020861
    156 H68         6.3220    2.5770   -3.3370 hc        1 MOL      0.020861
    157 H69         5.8080    4.6520   -1.8450 hc        1 MOL      0.043810
    158 H70         4.1100    4.0910   -1.9320 hc        1 MOL      0.043810
    159 N14         4.4860    1.4840    0.5040 n         1 MOL      0.079876
    160 C53         3.5730    1.6800    1.6040 c3        1 MOL      0.042439
    161 C54         4.2050    1.0650    2.8670 c         1 MOL      0.333010
    162 O24         4.2230    1.6750    3.9480 o         1 MOL     -0.544876
    163 C55         2.2020    1.1510    1.2920 c3        1 MOL      0.170571
    164 C56         1.4140    1.9360    0.2810 c3        1 MOL     -0.015885
    165 C57         0.1600    1.1490   -0.2430 c         1 MOL      0.640237
    166 O25        -0.9790    1.6670   -0.3680 o         1 MOL     -0.665396
    167 O26         0.3400   -0.0520   -0.5210 o         1 MOL     -0.665396
    168 H71         4.4300    0.5760    0.0630 hn        1 MOL     -0.017871
    169 H72         3.4370    2.7480    1.7680 h1        1 MOL      0.043069
    170 H73         1.6520    1.1040    2.2230 hc        1 MOL     -0.012090
    171 H74         2.3670    0.1580    0.8780 hc        1 MOL     -0.012090
    172 H75         2.0500    2.2240   -0.5540 hc        1 MOL     -0.021326
    173 H76         0.9970    2.7950    0.8010 hc        1 MOL     -0.021326
    174 N15         4.8760   -0.0980    2.7340 n         1 MOL     -0.015963
    175 C58         5.7630   -0.6350    3.7690 c3        1 MOL     -0.200637
    176 H77         5.5140   -1.6800    3.9550 h1        1 MOL      0.070195
    177 H78         6.7990   -0.5640    3.4350 h1        1 MOL      0.070195
    178 H79         5.6380   -0.0640    4.6890 h1        1 MOL      0.070195
    179 H80         4.7990   -0.5730    1.8490 hn        1 MOL      0.033094
    180 Ca1        -2.5470   -0.3760   -1.3580 Ca        1 MOL      1.744945
    181 O27        -0.8900    0.2830   -3.3050 oh        1 MOL     -0.873127
    182 H81        -1.0820    1.0960   -3.7820 ho        1 MOL      0.403594
    183 H82        -0.0390    0.0160   -3.6290 ho        1 MOL      0.403594
@<TRIPOS>BOND
     1    1    2 1   
     2    1    4 1   
     3    1    5 1   
     4    1    6 1   
     5    2    3 2   
     6    2    7 1   
     7    7    8 1   
     8    7   15 1   
     9    8    9 1   
    10    8   11 1   
    11    8   16 1   
    12    9   10 2   
    13    9   19 1   
    14   11   12 1   
    15   11   17 1   
    16   11   18 1   
    17   12   13 1   
    18   12   14 1   
    19   19   20 1   
    20   19   27 1   
    21   20   21 1   
    22   20   23 1   
    23   20   28 1   
    24   21   22 2   
    25   21   38 1   
    26   23   24 1   
    27   23   25 1   
    28   23   29 1   
    29   24   26 1   
    30   24   30 1   
    31   24   31 1   
    32   25   32 1   
    33   25   33 1   
    34   25   34 1   
    35   26   35 1   
    36   26   36 1   
    37   26   37 1   
    38   38   39 1   
    39   38   46 1   
    40   39   40 1   
    41   39   42 1   
    42   39   47 1   
    43   40   41 2   
    44   40   50 1   
    45   42   43 1   
    46   42   48 1   
    47   42   49 1   
    48   43   44 1   
    49   43   45 1   
    50   50   51 1   
    51   50   54 1   
    52   51   52 1   
    53   51   55 1   
    54   51   56 1   
    55   52   53 2   
    56   52   57 1   
    57   57   58 1   
    58   57   65 1   
    59   58   59 1   
    60   58   61 1   
    61   58   66 1   
    62   59   60 2   
    63   59   69 1   
    64   61   62 1   
    65   61   67 1   
    66   61   68 1   
    67   62   63 1   
    68   62   64 1   
    69   69   70 1   
    70   69   73 1   
    71   70   71 1   
    72   70   74 1   
    73   70   75 1   
    74   71   72 2   
    75   71   76 1   
    76   76   77 1   
    77   76   85 1   
    78   77   78 1   
    79   77   80 1   
    80   77   86 1   
    81   78   79 2   
    82   78   93 1   
    83   80   81 1   
    84   80   87 1   
    85   80   88 1   
    86   81   82 1   
    87   81   89 1   
    88   81   90 1   
    89   82   83 1   
    90   82   84 2   
    91   83   91 1   
    92   83   92 1   
    93   93   94 1   
    94   93  100 1   
    95   94   95 1   
    96   94   97 1   
    97   94  101 1   
    98   95   96 2   
    99   95  109 1   
   100   97   98 1   
   101   97   99 1   
   102   97  102 1   
   103   98  103 1   
   104   98  104 1   
   105   98  105 1   
   106   99  106 1   
   107   99  107 1   
   108   99  108 1   
   109  109  110 1   
   110  109  117 1   
   111  110  111 1   
   112  110  113 1   
   113  110  118 1   
   114  111  112 2   
   115  111  123 1   
   116  113  114 1   
   117  113  119 1   
   118  113  120 1   
   119  114  115 1   
   120  114  116 2   
   121  115  121 1   
   122  115  122 1   
   123  123  124 1   
   124  123  135 1   
   125  124  125 1   
   126  124  127 1   
   127  124  136 1   
   128  125  126 2   
   129  125  144 1   
   130  127  128 1   
   131  127  137 1   
   132  127  138 1   
   133  128  129 ar  
   134  128  130 ar  
   135  129  131 ar  
   136  129  139 1   
   137  130  132 ar  
   138  130  140 1   
   139  131  133 ar  
   140  131  141 1   
   141  132  133 ar  
   142  132  142 1   
   143  133  134 1   
   144  134  143 1   
   145  144  145 1   
   146  144  153 1   
   147  145  146 1   
   148  145  148 1   
   149  145  154 1   
   150  146  147 2   
   151  146  159 1   
   152  148  149 1   
   153  148  155 1   
   154  148  156 1   
   155  149  150 1   
   156  149  157 1   
   157  149  158 1   
   158  150  151 1   
   159  150  152 1   
   160  159  160 1   
   161  159  168 1   
   162  160  161 1   
   163  160  163 1   
   164  160  169 1   
   165  161  162 2   
   166  161  174 1   
   167  163  164 1   
   168  163  170 1   
   169  163  171 1   
   170  164  165 1   
   171  164  172 1   
   172  164  173 1   
   173  165  166 1   
   174  165  167 1   
   175  174  175 1   
   176  174  179 1   
   177  175  176 1   
   178  175  177 1   
   179  175  178 1   
   180  181  182 1   
   181  181  183 1   
@<TRIPOS>SUBSTRUCTURE
     1 MOL         1 TEMP              0 ****  ****    0 ROOT
