@<TRIPOS>MOLECULE
MOL
  183   181     1     0     0
SMALL
resp


@<TRIPOS>ATOM
      1 C1         -1.1450    1.1850    6.3790 c3        1 MOL     -0.304886
      2 C2         -1.4270    1.3630    4.8890 c         1 MOL      0.837863
      3 O1         -0.7600    2.1660    4.2060 o         1 MOL     -0.660097
      4 H1         -0.5820    2.0430    6.7460 hc        1 MOL      0.062721
      5 H2         -2.0880    1.1100    6.9220 hc        1 MOL      0.062721
      6 H3         -0.5630    0.2760    6.5340 hc        1 MOL      0.062721
      7 N1         -2.3170    0.5230    4.3920 n         1 MOL     -0.692266
      8 C3         -2.8590    0.7160    3.0380 c3        1 MOL      0.339087
      9 C4         -3.3920    2.1130    2.8650 c         1 MOL      0.350358
     10 O2         -4.2630    2.5920    3.6370 o         1 MOL     -0.564496
     11 C5         -3.9560   -0.3480    2.7330 c3        1 MOL     -0.339510
     12 C6         -4.6450   -0.0850    1.4210 c         1 MOL      0.844788
     13 O3         -5.8860   -0.1780    1.4400 o         1 MOL     -0.597399
     14 O4         -3.9950    0.3720    0.4050 o         1 MOL     -0.597399
     15 H4         -2.8420   -0.1360    4.9450 hn        1 MOL      0.331428
     16 H5         -2.0160    0.5880    2.3650 h1        1 MOL     -0.006975
     17 H6         -4.7540   -0.2180    3.4510 hc        1 MOL      0.053188
     18 H7         -3.4660   -1.3190    2.6510 hc        1 MOL      0.053188
     19 N2         -2.8530    2.8670    1.9370 n         1 MOL     -0.187153
     20 C7         -3.2390    4.2280    1.5590 c3        1 MOL     -0.193620
     21 C8         -4.2520    4.2570    0.4010 c         1 MOL      0.626459
     22 O5         -5.0910    5.1290    0.5030 o         1 MOL     -0.612514
     23 C9         -1.9850    5.1060    1.3430 c3        1 MOL      0.276218
     24 C10        -0.7670    4.7960    2.3160 c3        1 MOL     -0.094900
     25 C11        -2.2750    6.5830    1.2960 c3        1 MOL     -0.243047
     26 C12         0.5310    5.5270    1.8640 c3        1 MOL     -0.003981
     27 H8         -2.0860    2.5480    1.3630 hn        1 MOL      0.205840
     28 H9         -3.7840    4.5980    2.4330 h1        1 MOL      0.099990
     29 H10        -1.6260    4.8560    0.3390 hc        1 MOL      0.018371
     30 H11        -0.3790    3.7810    2.2580 hc        1 MOL      0.047381
     31 H12        -0.9300    5.1180    3.3340 hc        1 MOL      0.047381
     32 H13        -2.3010    6.9100    2.3410 hc        1 MOL      0.035978
     33 H14        -1.5350    7.1570    0.7470 hc        1 MOL      0.035978
     34 H15        -3.1810    6.7430    0.7210 hc        1 MOL      0.035978
     35 H16         0.5030    6.5670    2.1850 hc        1 MOL     -0.007241
     36 H17         1.4150    5.3010    2.4530 hc        1 MOL     -0.007241
     37 H18         0.6730    5.5270    0.7890 hc        1 MOL     -0.007241
     38 N3         -4.3610    3.3050   -0.5140 n         1 MOL     -0.231739
     39 C13        -5.3090    3.3680   -1.6320 c3        1 MOL     -0.027449
     40 C14        -6.7850    3.0470   -1.2010 c         1 MOL      0.523546
     41 O6         -7.7660    3.6500   -1.7580 o         1 MOL     -0.560163
     42 C15        -4.8660    2.4420   -2.8330 c3        1 MOL     -0.111576
     43 C16        -3.4270    2.5980   -3.1970 c         1 MOL      0.654449
     44 O7         -2.5970    1.8670   -2.5970 o         1 MOL     -0.675265
     45 O8         -3.0720    3.3910   -4.1320 o         1 MOL     -0.675265
     46 H19        -3.8530    2.4670   -0.2490 hn        1 MOL      0.014805
     47 H20        -5.4760    4.3790   -1.9710 h1        1 MOL      0.074738
     48 H21        -5.5140    2.6670   -3.6690 hc        1 MOL      0.026530
     49 H22        -5.2290    1.4370   -2.5940 hc        1 MOL      0.026530
     50 N4         -6.8990    2.1980   -0.1660 n         1 MOL     -0.292631
     51 C17        -8.1510    1.5140    0.1500 c3        1 MOL     -0.097739
     52 C18        -8.3800    0.3030   -0.7820 c         1 MOL      0.444618
     53 O9         -9.4080    0.1460   -1.4500 o         1 MOL     -0.569326
     54 H23        -6.0720    1.7970    0.2580 hn        1 MOL      0.258643
     55 H24        -8.9870    2.1650   -0.0930 h1        1 MOL      0.072230
     56 H25        -8.1590    1.2810    1.2110 h1        1 MOL      0.072230
     57 N5         -7.3700   -0.5800   -0.9330 n         1 MOL     -0.040526
     58 C19        -7.3450   -1.8610   -1.6180 c3        1 MOL     -0.051496
     59 C20        -6.9930   -3.0350   -0.6010 c         1 MOL      0.390365
     60 O10        -6.7930   -4.1750   -1.0670 o         1 MOL     -0.518883
     61 C21        -6.3260   -1.7460   -2.7840 c3        1 MOL     -0.033502
     62 C22        -4.8720   -1.5740   -2.3330 c         1 MOL      0.653653
     63 O11        -4.0710   -1.1430   -3.1790 o         1 MOL     -0.745133
     64 O12        -4.4710   -1.8330   -1.2210 o         1 MOL     -0.745133
     65 H26        -6.6320   -0.4990   -0.2460 hn        1 MOL     -0.040691
     66 H27        -8.3510   -1.9650   -2.0240 h1        1 MOL      0.076045
     67 H28        -6.6640   -0.9870   -3.4760 hc        1 MOL      0.030320
     68 H29        -6.3680   -2.6860   -3.3350 hc        1 MOL      0.030320
     69 N6         -6.7660   -2.8080    0.7230 n         1 MOL     -0.303362
     70 C23        -6.4160   -3.9220    1.6980 c3        1 MOL     -0.139436
     71 C24        -5.0550   -4.6000    1.4890 c         1 MOL      0.522545
     72 O13        -4.8910   -5.6230    2.0290 o         1 MOL     -0.572598
     73 H30        -6.7610   -1.8460    1.0220 hn        1 MOL      0.233837
     74 H31        -7.1690   -4.7040    1.6020 h1        1 MOL      0.097989
     75 H32        -6.5000   -3.4870    2.7000 h1        1 MOL      0.097989
     76 N7         -4.1690   -4.1330    0.5690 n         1 MOL     -0.082940
     77 C25        -2.7780   -4.6150    0.4070 c3        1 MOL     -0.037361
     78 C26        -1.8000   -3.4890    0.7650 c         1 MOL      0.513008
     79 O14        -2.0520   -2.3030    0.5730 o         1 MOL     -0.644396
     80 C27        -2.4990   -5.3020   -0.9740 c3        1 MOL      0.002402
     81 C28        -2.9850   -4.6060   -2.2670 c3        1 MOL     -0.138970
     82 C29        -2.0420   -3.4400   -2.7330 c         1 MOL      0.705493
     83 N8         -2.0030   -3.1580   -4.0420 n         1 MOL     -0.892798
     84 O15        -1.3260   -2.7530   -2.0250 o         1 MOL     -0.549755
     85 H33        -4.4540   -3.3920   -0.0570 hn        1 MOL      0.090790
     86 H34        -2.6810   -5.3540    1.2020 h1        1 MOL      0.048659
     87 H35        -2.8450   -6.3290   -0.9470 hc        1 MOL      0.002510
     88 H36        -1.4100   -5.3610   -1.0180 hc        1 MOL      0.002510
     89 H37        -4.0170   -4.2640   -2.1690 hc        1 MOL      0.065881
     90 H38        -2.9940   -5.3250   -3.0790 hc        1 MOL      0.065881
     91 H39        -2.7830   -3.4160   -4.6140 hn        1 MOL      0.391115
     92 H40        -1.4890   -2.3090   -4.2350 hn        1 MOL      0.391115
     93 N9         -0.5550   -3.8490    1.1870 n         1 MOL     -0.285428
     94 C30         0.5590   -2.9180    1.4800 c3        1 MOL      0.016643
     95 C31         1.7570   -3.2480    0.5690 c         1 MOL      0.291429
     96 O16         2.6280   -4.1080    0.8630 o         1 MOL     -0.544730
     97 C32         1.0830   -3.1100    2.9330 c3        1 MOL      0.350015
     98 C33         2.1810   -2.0480    3.2810 c3        1 MOL     -0.407623
     99 C34        -0.1230   -2.9420    3.9010 c3        1 MOL     -0.407623
    100 H41        -0.3890   -4.7700    1.5780 hn        1 MOL      0.233216
    101 H42         0.3230   -1.8800    1.2280 h1        1 MOL      0.108733
    102 H43         1.4720   -4.0960    3.1790 hc        1 MOL     -0.038890
    103 H44         2.5580   -2.2590    4.2870 hc        1 MOL      0.083456
    104 H45         2.9540   -1.9370    2.5270 hc        1 MOL      0.083456
    105 H46         1.7200   -1.0670    3.4080 hc        1 MOL      0.083456
    106 H47        -0.7640   -2.0700    3.7560 hc        1 MOL      0.083456
    107 H48        -0.7520   -3.8180    3.7620 hc        1 MOL      0.083456
    108 H49         0.3310   -2.8870    4.8880 hc        1 MOL      0.083456
    109 N10         1.8280   -2.5850   -0.5730 n         1 MOL     -0.276369
    110 C35         3.0690   -2.6880   -1.3480 c3        1 MOL      0.304877
    111 C36         4.3320   -2.1010   -0.6780 c         1 MOL      0.398200
    112 O17         4.2010   -1.2860    0.2630 o         1 MOL     -0.198798
    113 C37         2.8610   -2.1830   -2.7750 c3        1 MOL     -0.545101
    114 C38         3.2610   -0.7340   -3.0390 c         1 MOL      0.736512
    115 N11         2.4980    0.1740   -2.4130 n         1 MOL     -0.862119
    116 O18         4.3160   -0.4340   -3.6270 o         1 MOL     -0.600816
    117 H50         1.0450   -1.9840   -0.8000 hn        1 MOL      0.166656
    118 H51         3.2540   -3.7640   -1.3750 h1        1 MOL      0.036646
    119 H52         1.8100   -2.3130   -3.0550 hc        1 MOL      0.137464
    120 H53         3.5610   -2.8040   -3.3260 hc        1 MOL      0.137464
    121 H54         1.8410   -0.0620   -1.6880 hn        1 MOL      0.423020
    122 H55         2.7090    1.1500   -2.5770 hn        1 MOL      0.423020
    123 N12         5.5650   -2.4580   -1.0390 n         1 MOL     -0.656590
    124 C39         6.7860   -1.9620   -0.4810 c3        1 MOL      0.342642
    125 C40         6.8920   -0.4220   -0.1790 c         1 MOL      0.465811
    126 O19         7.3640   -0.0260    0.9060 o         1 MOL     -0.463153
    127 C41         8.0720   -2.3320   -1.2720 c3        1 MOL     -0.117213
    128 C42         9.4180   -1.9450   -0.6060 ca        1 MOL      0.128358
    129 C43         9.5960   -2.2210    0.7880 ca        1 MOL     -0.291674
    130 C44        10.5180   -1.3690   -1.3280 ca        1 MOL     -0.291674
    131 C45        10.8320   -1.8380    1.4180 ca        1 MOL     -0.152612
    132 C46        11.6070   -0.9400   -0.6810 ca        1 MOL     -0.152612
    133 C47        11.8580   -1.2010    0.6860 ca        1 MOL      0.295201
    134 O20        13.0270   -0.9130    1.1330 oh        1 MOL     -0.504896
    135 H56         5.6810   -2.9890   -1.8980 hn        1 MOL      0.322698
    136 H57         6.8850   -2.3510    0.5220 h1        1 MOL      0.024183
    137 H58         8.0600   -1.8440   -2.2480 hc        1 MOL      0.028781
    138 H59         8.1360   -3.4070   -1.4320 hc        1 MOL      0.028781
    139 H60         8.7530   -2.6500    1.3210 ha        1 MOL      0.164230
    140 H61        10.3770   -1.1260   -2.3640 ha        1 MOL      0.164230
    141 H62        11.0450   -2.1250    2.4380 ha        1 MOL      0.108259
    142 H63        12.3940   -0.4780   -1.2630 ha        1 MOL      0.108259
    143 H64        13.6300   -0.4230    0.5660 ho        1 MOL      0.385371
    144 N13         6.3910    0.3950   -1.1550 n         1 MOL     -0.447126
    145 C48         6.2560    1.8700   -1.1000 c3        1 MOL      0.110078
    146 C49         5.3570    2.4600    0.0140 c         1 MOL      0.323580
    147 O21         5.5420    3.5240    0.5180 o         1 MOL     -0.489194
    148 C50         5.8170    2.4040   -2.4340 c3        1 MOL     -0.114843
    149 C51         6.0210    3.9280   -2.5840 c3        1 MOL     -0.336615
    150 C52         5.8230    4.4320   -4.0020 c         1 MOL      0.822394
    151 O22         6.7080    4.5110   -4.8500 o         1 MOL     -0.775600
    152 O23         4.7180    4.9030   -4.2680 o         1 MOL     -0.775600
    153 H65         5.9870   -0.0970   -1.9300 hn        1 MOL      0.289506
    154 H66         7.2350    2.3440   -1.0000 h1        1 MOL      0.066977
    155 H67         4.7450    2.2260   -2.5440 hc        1 MOL      0.064565
    156 H68         6.4280    1.8670   -3.1630 hc        1 MOL      0.064565
    157 H69         7.0210    4.2720   -2.3130 hc        1 MOL      0.068805
    158 H70         5.3880    4.5300   -1.9280 hc        1 MOL      0.068805
    159 N14         4.4660    1.5400    0.5110 n         1 MOL      0.077115
    160 C53         3.6500    1.8850    1.6790 c3        1 MOL     -0.066483
    161 C54         4.1460    1.3450    3.0450 c         1 MOL      0.432890
    162 O24         3.8970    1.7850    4.1320 o         1 MOL     -0.554987
    163 C55         2.2270    1.2790    1.4940 c3        1 MOL      0.055031
    164 C56         1.3270    1.8470    0.2610 c3        1 MOL      0.019346
    165 C57         0.0910    1.0280    0.0450 c         1 MOL      0.503317
    166 O25        -0.9810    1.6250    0.1280 o         1 MOL     -0.622861
    167 O26         0.2160   -0.0440   -0.6060 o         1 MOL     -0.622861
    168 H71         4.4360    0.5890    0.1870 hn        1 MOL     -0.122996
    169 H72         3.4570    2.9520    1.7910 h1        1 MOL      0.064574
    170 H73         1.7260    1.4530    2.4440 hc        1 MOL      0.038569
    171 H74         2.3370    0.2010    1.3130 hc        1 MOL      0.038569
    172 H75         1.9280    1.9860   -0.6380 hc        1 MOL      0.004700
    173 H76         0.9560    2.8000    0.6400 hc        1 MOL      0.004700
    174 N15         5.0930    0.4100    2.9240 n         1 MOL      0.096955
    175 C58         5.8890   -0.1460    4.0300 c3        1 MOL     -0.362305
    176 H77         6.3870    0.6650    4.5620 h1        1 MOL      0.111849
    177 H78         5.2330   -0.6820    4.7150 h1        1 MOL      0.111849
    178 H79         6.6370   -0.8310    3.6310 h1        1 MOL      0.111849
    179 H80         5.4130    0.2080    1.9850 hn        1 MOL     -0.077106
    180 Ca1        -2.2680   -0.3760   -1.3030 Ca        1 MOL      1.694973
    181 O27        -0.8710   -0.0440   -3.6960 oh        1 MOL     -0.817657
    182 H81        -0.2640   -0.5750   -4.2200 ho        1 MOL      0.398436
    183 H82        -1.1400    0.6550   -4.2830 ho        1 MOL      0.398436
@<TRIPOS>BOND
     1    1    2 1   
     2    1    4 1   
     3    1    5 1   
     4    1    6 1   
     5    2    3 2   
     6    2    7 1   
     7    7    8 1   
     8    7   15 1   
     9    8    9 1   
    10    8   11 1   
    11    8   16 1   
    12    9   10 2   
    13    9   19 1   
    14   11   12 1   
    15   11   17 1   
    16   11   18 1   
    17   12   13 1   
    18   12   14 1   
    19   19   20 1   
    20   19   27 1   
    21   20   21 1   
    22   20   23 1   
    23   20   28 1   
    24   21   22 2   
    25   21   38 1   
    26   23   24 1   
    27   23   25 1   
    28   23   29 1   
    29   24   26 1   
    30   24   30 1   
    31   24   31 1   
    32   25   32 1   
    33   25   33 1   
    34   25   34 1   
    35   26   35 1   
    36   26   36 1   
    37   26   37 1   
    38   38   39 1   
    39   38   46 1   
    40   39   40 1   
    41   39   42 1   
    42   39   47 1   
    43   40   41 2   
    44   40   50 1   
    45   42   43 1   
    46   42   48 1   
    47   42   49 1   
    48   43   44 1   
    49   43   45 1   
    50   50   51 1   
    51   50   54 1   
    52   51   52 1   
    53   51   55 1   
    54   51   56 1   
    55   52   53 2   
    56   52   57 1   
    57   57   58 1   
    58   57   65 1   
    59   58   59 1   
    60   58   61 1   
    61   58   66 1   
    62   59   60 2   
    63   59   69 1   
    64   61   62 1   
    65   61   67 1   
    66   61   68 1   
    67   62   63 1   
    68   62   64 1   
    69   69   70 1   
    70   69   73 1   
    71   70   71 1   
    72   70   74 1   
    73   70   75 1   
    74   71   72 2   
    75   71   76 1   
    76   76   77 1   
    77   76   85 1   
    78   77   78 1   
    79   77   80 1   
    80   77   86 1   
    81   78   79 2   
    82   78   93 1   
    83   80   81 1   
    84   80   87 1   
    85   80   88 1   
    86   81   82 1   
    87   81   89 1   
    88   81   90 1   
    89   82   83 1   
    90   82   84 2   
    91   83   91 1   
    92   83   92 1   
    93   93   94 1   
    94   93  100 1   
    95   94   95 1   
    96   94   97 1   
    97   94  101 1   
    98   95   96 2   
    99   95  109 1   
   100   97   98 1   
   101   97   99 1   
   102   97  102 1   
   103   98  103 1   
   104   98  104 1   
   105   98  105 1   
   106   99  106 1   
   107   99  107 1   
   108   99  108 1   
   109  109  110 1   
   110  109  117 1   
   111  110  111 1   
   112  110  113 1   
   113  110  118 1   
   114  111  112 2   
   115  111  123 1   
   116  113  114 1   
   117  113  119 1   
   118  113  120 1   
   119  114  115 1   
   120  114  116 2   
   121  115  121 1   
   122  115  122 1   
   123  123  124 1   
   124  123  135 1   
   125  124  125 1   
   126  124  127 1   
   127  124  136 1   
   128  125  126 2   
   129  125  144 1   
   130  127  128 1   
   131  127  137 1   
   132  127  138 1   
   133  128  129 ar  
   134  128  130 ar  
   135  129  131 ar  
   136  129  139 1   
   137  130  132 ar  
   138  130  140 1   
   139  131  133 ar  
   140  131  141 1   
   141  132  133 ar  
   142  132  142 1   
   143  133  134 1   
   144  134  143 1   
   145  144  145 1   
   146  144  153 1   
   147  145  146 1   
   148  145  148 1   
   149  145  154 1   
   150  146  147 2   
   151  146  159 1   
   152  148  149 1   
   153  148  155 1   
   154  148  156 1   
   155  149  150 1   
   156  149  157 1   
   157  149  158 1   
   158  150  151 1   
   159  150  152 1   
   160  159  160 1   
   161  159  168 1   
   162  160  161 1   
   163  160  163 1   
   164  160  169 1   
   165  161  162 2   
   166  161  174 1   
   167  163  164 1   
   168  163  170 1   
   169  163  171 1   
   170  164  165 1   
   171  164  172 1   
   172  164  173 1   
   173  165  166 1   
   174  165  167 1   
   175  174  175 1   
   176  174  179 1   
   177  175  176 1   
   178  175  177 1   
   179  175  178 1   
   180  181  182 1   
   181  181  183 1   
@<TRIPOS>SUBSTRUCTURE
     1 MOL         1 TEMP              0 ****  ****    0 ROOT
