@<TRIPOS>MOLECULE
MOL
  169   169     1     0     0
SMALL
resp


@<TRIPOS>ATOM
      1 C1          0.6230   -4.3000    5.7410 c3        1 MOL     -0.313073
      2 C2          0.8670   -3.7360    4.2930 c         1 MOL      0.675088
      3 O1          0.1100   -4.0830    3.3660 o         1 MOL     -0.585080
      4 H1          0.2110   -3.5130    6.3720 hc        1 MOL      0.071987
      5 H2         -0.0790   -5.1320    5.6930 hc        1 MOL      0.071987
      6 H3          1.5680   -4.6450    6.1610 hc        1 MOL      0.071987
      7 N1          1.9420   -3.0390    4.0480 n         1 MOL     -0.502120
      8 C3          2.4010   -2.6690    2.7090 c3        1 MOL      0.086315
      9 C4          2.7900   -3.8160    1.7250 c         1 MOL      0.652772
     10 O2          3.5930   -4.6690    2.1520 o         1 MOL     -0.627555
     11 C5          3.5840   -1.8270    3.0170 c3        1 MOL     -0.140910
     12 C6          4.1280   -1.1540    1.6910 c         1 MOL      0.829407
     13 O3          5.2340   -0.6330    1.6950 o         1 MOL     -0.800848
     14 O4          3.4100   -0.9450    0.6720 o         1 MOL     -0.800848
     15 H4          2.5540   -2.9360    4.8460 hn        1 MOL      0.282744
     16 H5          1.5970   -2.0930    2.2430 h1        1 MOL      0.024127
     17 H6          4.3410   -2.4940    3.4270 hc        1 MOL      0.036128
     18 H7          3.3230   -1.1190    3.8050 hc        1 MOL      0.036128
     19 N2          2.2050   -3.7960    0.5710 n         1 MOL     -0.395968
     20 C7          2.2300   -4.9520   -0.3020 c3        1 MOL      0.218091
     21 C8          3.0460   -4.8730   -1.5860 c         1 MOL      0.603694
     22 O5          2.9750   -5.6800   -2.4910 o         1 MOL     -0.562318
     23 C9          0.7470   -5.4010   -0.4890 c3        1 MOL     -0.209509
     24 H8          1.6410   -3.0100    0.3110 hn        1 MOL      0.229043
     25 H9          2.6490   -5.7730    0.2810 h1        1 MOL      0.013083
     26 H10         0.3780   -5.8480    0.4350 hc        1 MOL      0.048112
     27 H11         0.1400   -4.6310   -0.9550 hc        1 MOL      0.048112
     28 H12         0.8530   -6.1750   -1.2560 hc        1 MOL      0.048112
     29 N3          3.8500   -3.8250   -1.6900 n         1 MOL     -0.799833
     30 C10         4.7540   -3.5720   -2.8540 c3        1 MOL      0.673579
     31 C11         6.1150   -3.1980   -2.4080 c         1 MOL      0.281549
     32 O6          7.1030   -3.6760   -2.9470 o         1 MOL     -0.545764
     33 C12         4.1730   -2.4790   -3.7500 c3        1 MOL     -0.322809
     34 C13         3.5470   -1.2970   -3.0510 c         1 MOL      0.773207
     35 O7          4.2830   -0.6200   -2.2880 o         1 MOL     -0.719515
     36 O8          2.3120   -1.0220   -3.1650 o         1 MOL     -0.719515
     37 H13         3.5690   -3.0420   -1.1170 hn        1 MOL      0.365541
     38 H14         4.9550   -4.4360   -3.4770 h1        1 MOL     -0.049462
     39 H15         3.3970   -3.0360   -4.2800 hc        1 MOL      0.044150
     40 H16         4.9970   -2.1980   -4.3990 hc        1 MOL      0.044150
     41 N4          6.2670   -2.5500   -1.2110 n         1 MOL     -0.134994
     42 C14         7.4740   -2.1110   -0.4970 c3        1 MOL     -0.140323
     43 C15         7.6970   -0.5970   -0.5310 c         1 MOL      0.585632
     44 O9          8.5770   -0.0780    0.1460 o         1 MOL     -0.605749
     45 H17         5.3810   -2.3690   -0.7570 hn        1 MOL      0.073212
     46 H18         8.3240   -2.6270   -0.9460 h1        1 MOL      0.099257
     47 H19         7.4590   -2.4620    0.5370 h1        1 MOL      0.099257
     48 N5          6.7620    0.1390   -1.2230 n         1 MOL     -0.453923
     49 C16         6.8440    1.6270   -1.4830 c3        1 MOL      0.001411
     50 C17         6.4940    2.5220   -0.2310 c         1 MOL      0.464496
     51 O10         6.5180    3.7270   -0.4540 o         1 MOL     -0.530240
     52 C18         6.0110    2.0200   -2.7300 c3        1 MOL     -0.278369
     53 C19         4.5700    2.5520   -2.5430 c         1 MOL      0.594695
     54 N6          4.1080    3.3990   -3.4480 n         1 MOL     -0.636497
     55 O11         3.9580    2.2940   -1.4780 o         1 MOL     -0.706319
     56 H20         5.9880   -0.3320   -1.6610 hn        1 MOL      0.296633
     57 H21         7.8670    1.9030   -1.7430 h1        1 MOL      0.117310
     58 H22         6.0170    1.1720   -3.4190 hc        1 MOL      0.101056
     59 H23         6.5780    2.8500   -3.1500 hc        1 MOL      0.101056
     60 H24         4.6340    3.6270   -4.2870 hn        1 MOL      0.344857
     61 H25         3.1620    3.7020   -3.2780 hn        1 MOL      0.344857
     62 N7          6.2350    2.0420    1.0130 n         1 MOL     -0.335621
     63 C20         5.9320    2.8180    2.1830 c3        1 MOL     -0.249015
     64 C21         4.7620    3.7360    2.1310 c         1 MOL      0.695097
     65 O12         4.5550    4.3250    3.1820 o         1 MOL     -0.620877
     66 H26         6.2080    1.0350    1.1000 hn        1 MOL      0.426981
     67 H27         6.7850    3.3890    2.5470 h1        1 MOL      0.127172
     68 H28         5.6750    2.1130    2.9780 h1        1 MOL      0.127172
     69 N8          3.9240    3.7700    1.0880 n         1 MOL     -0.629410
     70 C22         2.6310    4.5210    1.1140 c3        1 MOL      0.199295
     71 C23         1.4380    3.6100    1.0050 c         1 MOL      0.629931
     72 O13         1.4890    2.5680    0.3760 o         1 MOL     -0.682275
     73 C24         2.5940    5.4960   -0.0610 c3        1 MOL      0.357736
     74 C25         1.2530    6.2660   -0.2870 c3        1 MOL     -0.511520
     75 O14         3.5910    6.4390    0.2950 oh        1 MOL     -0.595243
     76 H29         4.2460    3.2950    0.2600 hn        1 MOL      0.358407
     77 H30         2.5550    5.0900    2.0410 h1        1 MOL      0.068285
     78 H31         2.8790    4.9590   -0.9680 h1        1 MOL      0.027389
     79 H32         4.0870    6.4960   -0.5270 ho        1 MOL      0.357960
     80 H33         0.5320    5.5260   -0.6460 hc        1 MOL      0.130694
     81 H34         1.0260    6.6390    0.7070 hc        1 MOL      0.130694
     82 H35         1.3690    7.0420   -1.0460 hc        1 MOL      0.130694
     83 N9          0.2650    3.9590    1.5690 n         1 MOL     -0.559390
     84 C26        -0.8910    3.0790    1.6230 c3        1 MOL      0.129214
     85 C27        -1.7480    3.3230    0.4410 c         1 MOL      0.477277
     86 O15        -2.2150    4.4200    0.2160 o         1 MOL     -0.606504
     87 C28        -1.6260    3.3090    2.9610 c3        1 MOL      0.190285
     88 C29        -0.7540    2.9730    4.1960 c3        1 MOL     -0.061656
     89 C30        -2.9410    2.5320    2.9940 c3        1 MOL     -0.157481
     90 C31        -0.3970    1.4730    4.4570 c3        1 MOL     -0.008351
     91 H36         0.3960    4.7270    2.2120 hn        1 MOL      0.257444
     92 H37        -0.5260    2.0480    1.5350 h1        1 MOL      0.131913
     93 H38        -1.8890    4.3690    3.0570 hc        1 MOL     -0.015769
     94 H39        -1.3830    3.3250    5.0140 hc        1 MOL     -0.006553
     95 H40         0.1640    3.5690    4.1790 hc        1 MOL     -0.006553
     96 H41        -3.6480    2.8760    2.2440 hc        1 MOL      0.016846
     97 H42        -2.7770    1.4710    2.7850 hc        1 MOL      0.016846
     98 H43        -3.2830    2.6820    4.0220 hc        1 MOL      0.016846
     99 H44        -1.2460    0.8660    4.1380 hc        1 MOL     -0.001318
    100 H45         0.3130    1.1660    3.6830 hc        1 MOL     -0.001318
    101 H46         0.0170    1.1860    5.4200 hc        1 MOL     -0.001318
    102 N10        -2.0100    2.2300   -0.2990 n         1 MOL     -0.091472
    103 C32        -2.9970    2.0590   -1.4460 c3        1 MOL     -0.076102
    104 C33        -4.3720    1.4620   -0.9340 c         1 MOL      0.565804
    105 O16        -4.4640    0.9480    0.1410 o         1 MOL     -0.446956
    106 C34        -2.3630    1.1540   -2.5120 c3        1 MOL      0.012461
    107 C35        -1.0020    1.5420   -3.0920 c         1 MOL      0.732603
    108 O17        -0.9290    2.2490   -4.1110 o         1 MOL     -0.727444
    109 O18         0.0070    1.0730   -2.5750 o         1 MOL     -0.727444
    110 H47        -1.5300    1.3900   -0.0320 hn        1 MOL      0.024916
    111 H48        -3.2600    2.9720   -1.9710 h1        1 MOL      0.074304
    112 H49        -3.0400    1.1400   -3.3680 hc        1 MOL     -0.027222
    113 H50        -2.2700    0.1430   -2.1270 hc        1 MOL     -0.027222
    114 N11        -5.4670    1.4470   -1.7470 n         1 MOL     -0.779067
    115 C36        -6.7920    0.9860   -1.2250 c3        1 MOL      0.620475
    116 C37        -6.9940   -0.4890   -0.7980 c         1 MOL      0.178981
    117 O19        -7.6110   -0.6980    0.2100 o         1 MOL     -0.488155
    118 C38        -7.8060    1.3510   -2.2570 c3        1 MOL     -0.278062
    119 C39        -9.2340    1.2390   -1.8500 ca        1 MOL      0.215722
    120 C40       -10.1870    0.5740   -2.5690 ca        1 MOL     -0.200443
    121 C41        -9.6010    1.9240   -0.7070 ca        1 MOL     -0.200443
    122 C42       -11.5490    0.6540   -2.2380 ca        1 MOL     -0.060053
    123 C43       -10.9220    1.8890   -0.2250 ca        1 MOL     -0.060053
    124 C44       -11.9510    1.3410   -1.0380 ca        1 MOL     -0.226309
    125 H51        -5.4480    1.8360   -2.6730 hn        1 MOL      0.353190
    126 H52        -6.9480    1.6050   -0.3440 h1        1 MOL      0.003549
    127 H53        -7.6340    0.6750   -3.0990 hc        1 MOL      0.044616
    128 H54        -7.6460    2.3940   -2.5360 hc        1 MOL      0.044616
    129 H55       -10.0070    0.1020   -3.5250 ha        1 MOL      0.108764
    130 H56        -8.8560    2.4790   -0.1510 ha        1 MOL      0.108764
    131 H57       -12.2690    0.1410   -2.8470 ha        1 MOL      0.099817
    132 H58       -11.2400    2.3760    0.6830 ha        1 MOL      0.099817
    133 H59       -12.9600    1.2870   -0.6710 ha        1 MOL      0.135438
    134 N12        -6.3380   -1.4720   -1.4260 n         1 MOL     -0.006583
    135 C45        -6.2320   -2.8680   -0.8920 c3        1 MOL     -0.039780
    136 C46        -5.4740   -3.0060    0.4070 c         1 MOL      0.346042
    137 O20        -5.5970   -3.8940    1.2090 o         1 MOL     -0.510065
    138 C47        -5.5470   -3.6990   -1.9810 c3        1 MOL     -0.037898
    139 C48        -5.8060   -2.8940   -3.2630 c3        1 MOL     -0.038325
    140 C49        -5.6640   -1.4580   -2.7600 c3        1 MOL     -0.097962
    141 H60        -7.2550   -3.2080   -0.7260 h1        1 MOL      0.085275
    142 H61        -4.4710   -3.6900   -1.8390 hc        1 MOL      0.043960
    143 H62        -5.8900   -4.7320   -2.0290 hc        1 MOL      0.043960
    144 H63        -5.0780   -3.1180   -4.0450 hc        1 MOL      0.028806
    145 H64        -6.8160   -3.0400   -3.6450 hc        1 MOL      0.028806
    146 H65        -4.6230   -1.1740   -2.5830 h1        1 MOL      0.065438
    147 H66        -6.1120   -0.8030   -3.4980 h1        1 MOL      0.065438
    148 N13        -4.6400   -2.0190    0.6990 n         1 MOL     -0.179893
    149 C50        -3.7360   -2.0400    1.9500 c3        1 MOL      0.039322
    150 C51        -4.2920   -1.4050    3.2090 c         1 MOL      0.450522
    151 O21        -4.2480   -1.9710    4.2860 o         1 MOL     -0.548549
    152 C52        -2.3650   -1.4680    1.6230 c3        1 MOL      0.035336
    153 C53        -1.7530   -1.8930    0.2750 c3        1 MOL      0.086911
    154 C54        -0.4520   -1.1320   -0.0530 c         1 MOL      0.696916
    155 O22         0.5440   -1.7330   -0.5460 o         1 MOL     -0.723808
    156 O23        -0.3040    0.0780    0.0320 o         1 MOL     -0.723808
    157 H67        -4.3940   -1.3890   -0.0380 hn        1 MOL      0.202735
    158 H68        -3.5010   -3.0510    2.2910 h1        1 MOL      0.066294
    159 H69        -1.6750   -1.7520    2.4150 hc        1 MOL     -0.021014
    160 H70        -2.4070   -0.3780    1.6100 hc        1 MOL     -0.021014
    161 H71        -2.4890   -1.4790   -0.4070 hc        1 MOL     -0.017225
    162 H72        -1.5470   -2.9640    0.1830 hc        1 MOL     -0.017225
    163 N14        -5.0820   -0.3860    2.9660 n         1 MOL     -0.080004
    164 C55        -6.1600    0.0740    3.9130 c3        1 MOL     -0.266022
    165 H73        -5.7020    0.5060    4.8030 h1        1 MOL      0.098708
    166 H74        -6.7790    0.8260    3.4230 h1        1 MOL      0.098708
    167 H75        -6.7790   -0.7760    4.2000 h1        1 MOL      0.098708
    168 H76        -5.0030    0.1580    2.1200 hn        1 MOL      0.125112
    169 Ca1         2.1380    0.3500   -0.9770 Ca        1 MOL      1.789501
@<TRIPOS>BOND
     1    1    2 1   
     2    1    4 1   
     3    1    5 1   
     4    1    6 1   
     5    2    3 2   
     6    2    7 1   
     7    7    8 1   
     8    7   15 1   
     9    8    9 1   
    10    8   11 1   
    11    8   16 1   
    12    9   10 2   
    13    9   19 1   
    14   11   12 1   
    15   11   17 1   
    16   11   18 1   
    17   12   13 1   
    18   12   14 1   
    19   19   20 1   
    20   19   24 1   
    21   20   21 1   
    22   20   23 1   
    23   20   25 1   
    24   21   22 2   
    25   21   29 1   
    26   23   26 1   
    27   23   27 1   
    28   23   28 1   
    29   29   30 1   
    30   29   37 1   
    31   30   31 1   
    32   30   33 1   
    33   30   38 1   
    34   31   32 2   
    35   31   41 1   
    36   33   34 1   
    37   33   39 1   
    38   33   40 1   
    39   34   35 1   
    40   34   36 1   
    41   41   42 1   
    42   41   45 1   
    43   42   43 1   
    44   42   46 1   
    45   42   47 1   
    46   43   44 2   
    47   43   48 1   
    48   48   49 1   
    49   48   56 1   
    50   49   50 1   
    51   49   52 1   
    52   49   57 1   
    53   50   51 2   
    54   50   62 1   
    55   52   53 1   
    56   52   58 1   
    57   52   59 1   
    58   53   54 1   
    59   53   55 2   
    60   54   60 1   
    61   54   61 1   
    62   62   63 1   
    63   62   66 1   
    64   63   64 1   
    65   63   67 1   
    66   63   68 1   
    67   64   65 2   
    68   64   69 1   
    69   69   70 1   
    70   69   76 1   
    71   70   71 1   
    72   70   73 1   
    73   70   77 1   
    74   71   72 2   
    75   71   83 1   
    76   73   74 1   
    77   73   75 1   
    78   73   78 1   
    79   74   80 1   
    80   74   81 1   
    81   74   82 1   
    82   75   79 1   
    83   83   84 1   
    84   83   91 1   
    85   84   85 1   
    86   84   87 1   
    87   84   92 1   
    88   85   86 2   
    89   85  102 1   
    90   87   88 1   
    91   87   89 1   
    92   87   93 1   
    93   88   90 1   
    94   88   94 1   
    95   88   95 1   
    96   89   96 1   
    97   89   97 1   
    98   89   98 1   
    99   90   99 1   
   100   90  100 1   
   101   90  101 1   
   102  102  103 1   
   103  102  110 1   
   104  103  104 1   
   105  103  106 1   
   106  103  111 1   
   107  104  105 2   
   108  104  114 1   
   109  106  107 1   
   110  106  112 1   
   111  106  113 1   
   112  107  108 1   
   113  107  109 1   
   114  114  115 1   
   115  114  125 1   
   116  115  116 1   
   117  115  118 1   
   118  115  126 1   
   119  116  117 2   
   120  116  134 1   
   121  118  119 1   
   122  118  127 1   
   123  118  128 1   
   124  119  120 ar  
   125  119  121 ar  
   126  120  122 ar  
   127  120  129 1   
   128  121  123 ar  
   129  121  130 1   
   130  122  124 ar  
   131  122  131 1   
   132  123  124 ar  
   133  123  132 1   
   134  124  133 1   
   135  134  135 1   
   136  134  140 1   
   137  135  136 1   
   138  135  138 1   
   139  135  141 1   
   140  136  137 2   
   141  136  148 1   
   142  138  139 1   
   143  138  142 1   
   144  138  143 1   
   145  139  140 1   
   146  139  144 1   
   147  139  145 1   
   148  140  146 1   
   149  140  147 1   
   150  148  149 1   
   151  148  157 1   
   152  149  150 1   
   153  149  152 1   
   154  149  158 1   
   155  150  151 2   
   156  150  163 1   
   157  152  153 1   
   158  152  159 1   
   159  152  160 1   
   160  153  154 1   
   161  153  161 1   
   162  153  162 1   
   163  154  155 1   
   164  154  156 1   
   165  163  164 1   
   166  163  168 1   
   167  164  165 1   
   168  164  166 1   
   169  164  167 1   
@<TRIPOS>SUBSTRUCTURE
     1 MOL         1 TEMP              0 ****  ****    0 ROOT
