@<TRIPOS>MOLECULE
MOL
  189   185     1     0     0
SMALL
resp


@<TRIPOS>ATOM
      1 C1          0.3860    2.4070    5.4260 c3        1 MOL     -0.365667
      2 C2         -0.2320    1.9500    4.0820 c         1 MOL      0.485829
      3 O1          0.4500    1.9190    3.0440 o         1 MOL     -0.452224
      4 H1          0.9870    1.5980    5.8420 hc        1 MOL      0.104306
      5 H2          1.0170    3.2800    5.2580 hc        1 MOL      0.104306
      6 H3         -0.4100    2.6630    6.1240 hc        1 MOL      0.104306
      7 N1         -1.5130    1.5390    3.9720 n         1 MOL     -0.448376
      8 C3         -2.1680    1.3300    2.6170 c3        1 MOL      0.064787
      9 C4         -2.7840    2.6690    2.0930 c         1 MOL      0.417787
     10 O2         -3.9320    2.9600    2.3450 o         1 MOL     -0.462740
     11 C5         -3.3370    0.3860    2.8600 c3        1 MOL     -0.062998
     12 C6         -4.1190    0.0670    1.5940 c         1 MOL      0.690881
     13 O3         -3.4940    0.2760    0.4850 o         1 MOL     -0.727264
     14 O4         -5.3220   -0.3440    1.6820 o         1 MOL     -0.727264
     15 H4         -2.0980    1.5850    4.7930 hn        1 MOL      0.300819
     16 H5         -1.4620    0.9190    1.9010 h1        1 MOL      0.020567
     17 H6         -3.9370    0.8670    3.6320 hc        1 MOL      0.017095
     18 H7         -2.9040   -0.5160    3.2970 hc        1 MOL      0.017095
     19 N2         -1.9890    3.4750    1.4090 n         1 MOL     -0.410394
     20 C7         -2.1520    4.9110    1.1170 c3        1 MOL      0.018402
     21 C8         -3.2000    5.1510   -0.0180 c         1 MOL      0.392866
     22 O5         -3.7110    6.2760   -0.1430 o         1 MOL     -0.580747
     23 C9         -0.8790    5.6120    0.7790 c3        1 MOL      0.000317
     24 C10         0.1760    5.4120    1.8420 c3        1 MOL     -0.137183
     25 C11         1.3730    6.2900    1.3840 c3        1 MOL      0.002569
     26 C12         2.4950    6.5740    2.3270 c3        1 MOL      0.056857
     27 N3          3.4720    7.4260    1.6280 n4        1 MOL     -0.276565
     28 H8         -1.1200    3.1000    1.0730 hn        1 MOL      0.424633
     29 H9         -2.6260    5.3760    1.9750 h1        1 MOL      0.090252
     30 H10        -1.1580    6.6680    0.7050 hc        1 MOL      0.022603
     31 H11        -0.4820    5.2350   -0.1710 hc        1 MOL      0.022603
     32 H12         0.4230    4.3550    1.8630 hc        1 MOL      0.051038
     33 H13        -0.1820    5.9440    2.7290 hc        1 MOL      0.051038
     34 H14         0.8850    7.2310    1.1350 hc        1 MOL      0.020863
     35 H15         1.8180    5.8430    0.4870 hc        1 MOL      0.020863
     36 H16         2.8280    5.5940    2.6600 hx        1 MOL      0.077485
     37 H17         2.2310    7.1960    3.1920 hx        1 MOL      0.077485
     38 H18         3.0840    8.3400    1.4510 hn        1 MOL      0.297937
     39 H19         4.3020    7.5560    2.1900 hn        1 MOL      0.297937
     40 H20         3.7410    7.1560    0.6890 hn        1 MOL      0.297937
     41 N4         -3.4000    4.2050   -0.8780 n         1 MOL     -0.059543
     42 C13        -4.4400    4.3070   -1.9570 c3        1 MOL     -0.074509
     43 C14        -5.7210    3.4030   -1.7230 c         1 MOL      0.509255
     44 O6         -6.6940    3.4620   -2.5170 o         1 MOL     -0.548561
     45 C15        -3.7550    4.0230   -3.3480 c3        1 MOL     -0.229055
     46 C16        -2.6930    2.8750   -3.3700 c         1 MOL      0.798525
     47 O7         -1.8150    2.8830   -4.3090 o         1 MOL     -0.743209
     48 O8         -2.6790    1.9780   -2.4920 o         1 MOL     -0.743209
     49 H21        -2.7800    3.4150   -0.8780 hn        1 MOL      0.102597
     50 H22        -4.9380    5.2820   -2.0170 h1        1 MOL      0.118801
     51 H23        -3.2090    4.8950   -3.7100 hc        1 MOL      0.063269
     52 H24        -4.5560    3.8080   -4.0510 hc        1 MOL      0.063269
     53 N5         -5.8290    2.7410   -0.5550 n         1 MOL     -0.269710
     54 C17        -7.1080    2.1760   -0.0200 c3        1 MOL     -0.195991
     55 C18        -7.6620    0.9350   -0.7410 c         1 MOL      0.487710
     56 O9         -8.8210    0.6470   -0.5020 o         1 MOL     -0.553851
     57 H25        -5.0290    2.8010    0.0610 hn        1 MOL      0.168288
     58 H26        -7.8830    2.9390    0.0190 h1        1 MOL      0.129841
     59 H27        -6.8470    1.9530    1.0190 h1        1 MOL      0.129841
     60 N6         -6.8150    0.2780   -1.5680 n         1 MOL     -0.224021
     61 C19        -7.1600   -1.0280   -2.1830 c3        1 MOL      0.014322
     62 C20        -7.3860   -2.1720   -1.2160 c         1 MOL      0.412089
     63 O10        -7.8610   -3.2520   -1.5940 o         1 MOL     -0.552154
     64 C21        -6.1300   -1.4720   -3.2350 c3        1 MOL     -0.212007
     65 C22        -4.6500   -1.2740   -2.7670 c         1 MOL      0.735713
     66 O11        -4.2220   -1.9420   -1.8240 o         1 MOL     -0.704512
     67 O12        -3.9790   -0.4220   -3.3210 o         1 MOL     -0.704512
     68 H28        -5.8990    0.6610   -1.7590 hn        1 MOL      0.212678
     69 H29        -8.1070   -0.9520   -2.7070 h1        1 MOL      0.089326
     70 H30        -6.3250   -0.8560   -4.1130 hc        1 MOL      0.055764
     71 H31        -6.2250   -2.5460   -3.4240 hc        1 MOL      0.055764
     72 N7         -7.1040   -1.9650    0.0570 n         1 MOL     -0.303141
     73 C23        -7.0850   -3.0200    1.1120 c3        1 MOL     -0.033687
     74 C24        -5.6900   -3.6380    1.3620 c         1 MOL      0.506934
     75 O13        -5.6710   -4.5980    2.0810 o         1 MOL     -0.587842
     76 H32        -6.6560   -1.1070    0.3570 hn        1 MOL      0.341818
     77 H33        -7.8150   -3.8020    0.9170 h1        1 MOL      0.074189
     78 H34        -7.5170   -2.4750    1.9560 h1        1 MOL      0.074189
     79 N8         -4.5770   -3.2200    0.7150 n         1 MOL     -0.028180
     80 C25        -3.3510   -4.0450    0.8420 c3        1 MOL     -0.391799
     81 C26        -2.1210   -3.2210    0.9370 c         1 MOL      0.792192
     82 O14        -1.9180   -2.2620    0.1990 o         1 MOL     -0.682968
     83 C27        -3.2510   -5.0200   -0.3000 c3        1 MOL      0.455396
     84 C28        -3.9550   -6.3830   -0.0790 c3        1 MOL     -0.228488
     85 O15        -3.7720   -4.5500   -1.5300 oh        1 MOL     -0.696451
     86 H35        -4.5900   -2.3990    0.1320 hn        1 MOL      0.065357
     87 H36        -3.2890   -4.5980    1.7800 h1        1 MOL      0.131371
     88 H37        -2.2200   -5.3200   -0.4910 h1        1 MOL     -0.038703
     89 H38        -3.8820   -3.6020   -1.5110 ho        1 MOL      0.481902
     90 H39        -3.8210   -6.8620    0.8860 hc        1 MOL      0.057121
     91 H40        -5.0190   -6.2350   -0.2490 hc        1 MOL      0.057121
     92 H41        -3.6870   -7.2270   -0.7240 hc        1 MOL      0.057121
     93 N9         -1.1580   -3.6740    1.7670 n         1 MOL     -0.644623
     94 C29         0.1580   -2.9350    1.9510 c3        1 MOL     -0.020434
     95 C30         1.2000   -3.5890    1.0380 c         1 MOL      0.563257
     96 O16         1.5210   -4.7590    1.2930 o         1 MOL     -0.560804
     97 C31         0.5630   -2.9480    3.4140 c3        1 MOL      0.318765
     98 C32        -0.5050   -2.3430    4.4280 c3        1 MOL     -0.030593
     99 C33         1.8370   -2.1470    3.4960 c3        1 MOL     -0.428937
    100 C34        -0.0500   -2.8060    5.8010 c3        1 MOL     -0.068301
    101 H42        -1.3040   -4.4210    2.4340 hn        1 MOL      0.300821
    102 H43        -0.0510   -1.9010    1.7090 h1        1 MOL      0.175000
    103 H44         0.8770   -3.9660    3.6800 hc        1 MOL     -0.022933
    104 H45        -1.5030   -2.7180    4.2230 hc        1 MOL      0.015782
    105 H46        -0.5300   -1.2570    4.3490 hc        1 MOL      0.015782
    106 H47         2.2220   -2.3560    4.4960 hc        1 MOL      0.089298
    107 H48         2.5690   -2.4180    2.7310 hc        1 MOL      0.089298
    108 H49         1.5230   -1.1330    3.2850 hc        1 MOL      0.089298
    109 H50        -0.1530   -3.8710    5.9840 hc        1 MOL      0.010652
    110 H51         1.0060   -2.5640    5.9420 hc        1 MOL      0.010652
    111 H52        -0.6140   -2.2790    6.5770 hc        1 MOL      0.010652
    112 N10         1.8010   -2.7820    0.1390 n         1 MOL     -0.272252
    113 C35         2.9300   -3.2050   -0.7860 c3        1 MOL     -0.099556
    114 C36         4.3400   -3.0160   -0.1110 c         1 MOL      0.389858
    115 O17         4.4720   -2.1660    0.7710 o         1 MOL     -0.290481
    116 C37         2.8530   -2.4180   -2.0810 c3        1 MOL      0.205881
    117 C38         1.5890   -2.8490   -2.8800 c3        1 MOL     -0.203345
    118 O18         2.7460   -1.0730   -1.7820 oh        1 MOL     -0.567870
    119 H53         1.4990   -1.8260    0.1220 hn        1 MOL      0.223281
    120 H54         2.9040   -4.2860   -0.9170 h1        1 MOL      0.089243
    121 H55         3.6910   -2.5550   -2.7540 h1        1 MOL      0.020664
    122 H56         1.8540   -0.9110   -1.4800 ho        1 MOL      0.347536
    123 H57         1.7070   -3.8080   -3.3830 hc        1 MOL      0.063312
    124 H58         0.6650   -2.8620   -2.3110 hc        1 MOL      0.063312
    125 H59         1.4480   -2.2000   -3.7420 hc        1 MOL      0.063312
    126 N11         5.3630   -3.6790   -0.5500 n         1 MOL     -0.320750
    127 C39         6.7730   -3.5560   -0.1880 c3        1 MOL     -0.150451
    128 C40         7.1630   -1.9970   -0.2640 c         1 MOL      0.360424
    129 O19         7.6440   -1.5370    0.7620 o         1 MOL     -0.462539
    130 C41         7.5800   -4.4080   -1.2490 c3        1 MOL      0.456573
    131 C42         9.0500   -4.7190   -1.1130 c3        1 MOL     -0.353605
    132 O20         7.0190   -5.6970   -1.3760 oh        1 MOL     -0.540692
    133 H60         5.2000   -4.2600   -1.3630 hn        1 MOL      0.203264
    134 H61         6.8520   -3.9680    0.8150 h1        1 MOL      0.156442
    135 H62         7.5670   -3.7620   -2.1230 h1        1 MOL     -0.076047
    136 H63         6.3030   -5.5490   -1.9980 ho        1 MOL      0.353089
    137 H64         9.2540   -5.4450   -0.3280 hc        1 MOL      0.099494
    138 H65         9.3120   -5.1830   -2.0660 hc        1 MOL      0.099494
    139 H66         9.6600   -3.8200   -1.0200 hc        1 MOL      0.099494
    140 N12         6.7950   -1.2740   -1.3550 n         1 MOL     -0.113110
    141 C43         7.2140    0.1300   -1.4980 c3        1 MOL     -0.194101
    142 C44         6.4130    0.9140   -0.3760 c         1 MOL      0.499063
    143 O21         6.9340    1.8510    0.2630 o         1 MOL     -0.540144
    144 C45         7.1960    0.7780   -2.9130 c3        1 MOL      0.054327
    145 C46         7.7990    2.1680   -3.0390 c3        1 MOL     -0.236684
    146 C47         9.2230    2.1740   -2.5410 c3        1 MOL      0.064780
    147 C48         9.7720    3.5050   -3.0330 c3        1 MOL      0.150445
    148 N13        11.2680    3.6930   -2.8060 n4        1 MOL     -0.397616
    149 H67         6.5290   -1.8010   -2.1790 hn        1 MOL      0.192438
    150 H68         8.2580    0.0780   -1.1890 h1        1 MOL      0.078519
    151 H69         6.1680    0.8040   -3.2790 hc        1 MOL      0.032606
    152 H70         7.6700    0.1030   -3.6360 hc        1 MOL      0.032606
    153 H71         7.2340    2.7740   -2.3350 hc        1 MOL      0.093133
    154 H72         7.7350    2.5330   -4.0590 hc        1 MOL      0.093133
    155 H73         9.7900    1.4110   -3.0780 hc        1 MOL      0.018913
    156 H74         9.3040    2.1050   -1.4570 hc        1 MOL      0.018913
    157 H75         9.2490    4.3130   -2.5280 hx        1 MOL      0.046322
    158 H76         9.6220    3.6240   -4.0980 hx        1 MOL      0.046322
    159 H77        11.5730    3.1860   -1.9770 hn        1 MOL      0.331307
    160 H78        11.6960    3.3230   -3.6470 hn        1 MOL      0.331307
    161 H79        11.5480    4.6660   -2.7870 hn        1 MOL      0.331307
    162 N14         5.1610    0.6040   -0.1340 n         1 MOL     -0.183825
    163 C49         4.3650    1.2920    0.9210 c3        1 MOL     -0.172242
    164 C50         4.9550    1.0740    2.2950 c         1 MOL      0.520302
    165 O22         5.2800    2.0530    2.9630 o         1 MOL     -0.581788
    166 C51         2.8540    0.8480    0.9610 c3        1 MOL      0.327256
    167 C52         2.0180    1.5940   -0.1090 c3        1 MOL     -0.332345
    168 C53         0.6910    0.9120   -0.3990 c         1 MOL      0.822709
    169 O23        -0.3880    1.5180   -0.4140 o         1 MOL     -0.743702
    170 O24         0.6510   -0.3690   -0.5650 o         1 MOL     -0.743702
    171 H80         4.8090   -0.1870   -0.6520 hn        1 MOL      0.153428
    172 H81         4.3420    2.3790    0.7640 h1        1 MOL      0.083186
    173 H82         2.4110    0.9070    1.9550 hc        1 MOL     -0.100765
    174 H83         2.7630   -0.2280    0.7810 hc        1 MOL     -0.100765
    175 H84         2.6120    1.5850   -1.0270 hc        1 MOL      0.063066
    176 H85         1.8480    2.6230    0.2190 hc        1 MOL      0.063066
    177 N15         5.1600   -0.1730    2.7180 n         1 MOL     -0.115475
    178 C54         5.8320   -0.5650    3.9540 c3        1 MOL     -0.139407
    179 H86         5.0950   -0.6640    4.7510 h1        1 MOL      0.072255
    180 H87         6.3370   -1.5200    3.8070 h1        1 MOL      0.072255
    181 H88         6.5630    0.1950    4.2280 h1        1 MOL      0.072255
    182 H89         4.9590   -0.8850    2.0390 hn        1 MOL      0.101082
    183 Ca1        -1.8610   -0.1940   -1.5820 Ca        1 MOL      1.789064
    184 O25        -1.6350   -1.9980   -3.6920 oh        1 MOL     -0.836239
    185 H90        -2.3220   -2.6580   -3.7370 ho        1 MOL      0.401842
    186 H91        -1.4550   -1.7740   -4.6140 ho        1 MOL      0.401842
    187 O26        -0.0270    0.4360   -3.5910 oh        1 MOL     -0.836239
    188 H92         0.6690    0.0740   -4.1370 ho        1 MOL      0.401842
    189 H93        -0.3090    1.2240   -4.0400 ho        1 MOL      0.401842
@<TRIPOS>BOND
     1    1    2 1   
     2    1    4 1   
     3    1    5 1   
     4    1    6 1   
     5    2    3 2   
     6    2    7 1   
     7    7    8 1   
     8    7   15 1   
     9    8    9 1   
    10    8   11 1   
    11    8   16 1   
    12    9   10 2   
    13    9   19 1   
    14   11   12 1   
    15   11   17 1   
    16   11   18 1   
    17   12   13 1   
    18   12   14 1   
    19   19   20 1   
    20   19   28 1   
    21   20   21 1   
    22   20   23 1   
    23   20   29 1   
    24   21   22 2   
    25   21   41 1   
    26   23   24 1   
    27   23   30 1   
    28   23   31 1   
    29   24   25 1   
    30   24   32 1   
    31   24   33 1   
    32   25   26 1   
    33   25   34 1   
    34   25   35 1   
    35   26   27 1   
    36   26   36 1   
    37   26   37 1   
    38   27   38 1   
    39   27   39 1   
    40   27   40 1   
    41   41   42 1   
    42   41   49 1   
    43   42   43 1   
    44   42   45 1   
    45   42   50 1   
    46   43   44 2   
    47   43   53 1   
    48   45   46 1   
    49   45   51 1   
    50   45   52 1   
    51   46   47 1   
    52   46   48 1   
    53   53   54 1   
    54   53   57 1   
    55   54   55 1   
    56   54   58 1   
    57   54   59 1   
    58   55   56 2   
    59   55   60 1   
    60   60   61 1   
    61   60   68 1   
    62   61   62 1   
    63   61   64 1   
    64   61   69 1   
    65   62   63 2   
    66   62   72 1   
    67   64   65 1   
    68   64   70 1   
    69   64   71 1   
    70   65   66 1   
    71   65   67 1   
    72   72   73 1   
    73   72   76 1   
    74   73   74 1   
    75   73   77 1   
    76   73   78 1   
    77   74   75 2   
    78   74   79 1   
    79   79   80 1   
    80   79   86 1   
    81   80   81 1   
    82   80   83 1   
    83   80   87 1   
    84   81   82 2   
    85   81   93 1   
    86   83   84 1   
    87   83   85 1   
    88   83   88 1   
    89   84   90 1   
    90   84   91 1   
    91   84   92 1   
    92   85   89 1   
    93   93   94 1   
    94   93  101 1   
    95   94   95 1   
    96   94   97 1   
    97   94  102 1   
    98   95   96 2   
    99   95  112 1   
   100   97   98 1   
   101   97   99 1   
   102   97  103 1   
   103   98  100 1   
   104   98  104 1   
   105   98  105 1   
   106   99  106 1   
   107   99  107 1   
   108   99  108 1   
   109  100  109 1   
   110  100  110 1   
   111  100  111 1   
   112  112  113 1   
   113  112  119 1   
   114  113  114 1   
   115  113  116 1   
   116  113  120 1   
   117  114  115 2   
   118  114  126 1   
   119  116  117 1   
   120  116  118 1   
   121  116  121 1   
   122  117  123 1   
   123  117  124 1   
   124  117  125 1   
   125  118  122 1   
   126  126  127 1   
   127  126  133 1   
   128  127  128 1   
   129  127  130 1   
   130  127  134 1   
   131  128  129 2   
   132  128  140 1   
   133  130  131 1   
   134  130  132 1   
   135  130  135 1   
   136  131  137 1   
   137  131  138 1   
   138  131  139 1   
   139  132  136 1   
   140  140  141 1   
   141  140  149 1   
   142  141  142 1   
   143  141  144 1   
   144  141  150 1   
   145  142  143 2   
   146  142  162 1   
   147  144  145 1   
   148  144  151 1   
   149  144  152 1   
   150  145  146 1   
   151  145  153 1   
   152  145  154 1   
   153  146  147 1   
   154  146  155 1   
   155  146  156 1   
   156  147  148 1   
   157  147  157 1   
   158  147  158 1   
   159  148  159 1   
   160  148  160 1   
   161  148  161 1   
   162  162  163 1   
   163  162  171 1   
   164  163  164 1   
   165  163  166 1   
   166  163  172 1   
   167  164  165 2   
   168  164  177 1   
   169  166  167 1   
   170  166  173 1   
   171  166  174 1   
   172  167  168 1   
   173  167  175 1   
   174  167  176 1   
   175  168  169 1   
   176  168  170 1   
   177  177  178 1   
   178  177  182 1   
   179  178  179 1   
   180  178  180 1   
   181  178  181 1   
   182  184  185 1   
   183  184  186 1   
   184  187  188 1   
   185  187  189 1   
@<TRIPOS>SUBSTRUCTURE
     1 MOL         1 TEMP              0 ****  ****    0 ROOT
