@<TRIPOS>MOLECULE
MOL
  189   185     1     0     0
SMALL
resp


@<TRIPOS>ATOM
      1 C1          0.5080   -4.5870    5.3600 c3        1 MOL     -0.403355
      2 C2          1.2030   -3.8290    4.1540 c         1 MOL      0.678718
      3 O1          1.1960   -2.6240    4.0560 o         1 MOL     -0.561740
      4 H1          1.1550   -5.3960    5.7010 hc        1 MOL      0.106106
      5 H2          0.3390   -3.8890    6.1800 hc        1 MOL      0.106106
      6 H3         -0.4450   -4.9990    5.0310 hc        1 MOL      0.106106
      7 N1          1.9210   -4.5740    3.2610 n         1 MOL     -0.511668
      8 C3          2.6120   -3.9440    2.1090 c3        1 MOL      0.157800
      9 C4          2.7240   -5.0340    1.0450 c         1 MOL      0.502366
     10 O2          3.0590   -6.1940    1.4030 o         1 MOL     -0.568805
     11 C5          4.0320   -3.4880    2.4510 c3        1 MOL     -0.324886
     12 C6          4.5540   -2.2480    1.7760 c         1 MOL      0.845643
     13 O3          5.5660   -1.7320    2.3390 o         1 MOL     -0.695486
     14 O4          4.0250   -1.8060    0.6530 o         1 MOL     -0.695486
     15 H4          1.9850   -5.5680    3.3780 hn        1 MOL      0.284117
     16 H5          2.0760   -3.0840    1.7000 h1        1 MOL      0.056462
     17 H6          4.7310   -4.2430    2.0950 hc        1 MOL      0.078439
     18 H7          4.0490   -3.3900    3.5310 hc        1 MOL      0.078439
     19 N2          2.5850   -4.6980   -0.2170 n         1 MOL     -0.232443
     20 C7          2.9290   -5.5030   -1.4050 c3        1 MOL     -0.249273
     21 C8          3.8440   -4.8510   -2.3770 c         1 MOL      0.656843
     22 O5          4.2100   -5.5050   -3.3840 o         1 MOL     -0.593911
     23 C9          1.7240   -6.1010   -2.1080 c3        1 MOL      0.164271
     24 C10         0.8670   -5.1010   -2.8870 c3        1 MOL      0.142173
     25 C11         0.7860   -6.7600   -1.0690 c3        1 MOL     -0.301697
     26 C12        -0.1400   -5.8200   -3.8460 c3        1 MOL     -0.431366
     27 H8          2.3820   -3.7420   -0.4670 hn        1 MOL      0.140434
     28 H9          3.4600   -6.3640   -0.9870 h1        1 MOL      0.129006
     29 H10         2.0590   -6.8570   -2.8120 hc        1 MOL     -0.001384
     30 H11         1.5520   -4.4480   -3.4380 hc        1 MOL      0.022464
     31 H12         0.3230   -4.4350   -2.2060 hc        1 MOL      0.022464
     32 H13         0.0180   -7.4160   -1.4640 hc        1 MOL      0.068129
     33 H14         1.3820   -7.2390   -0.2860 hc        1 MOL      0.068129
     34 H15         0.2310   -6.0170   -0.4970 hc        1 MOL      0.068129
     35 H16        -0.6390   -5.0090   -4.3830 hc        1 MOL      0.102821
     36 H17         0.4050   -6.5190   -4.4690 hc        1 MOL      0.102821
     37 H18        -0.8380   -6.4200   -3.2570 hc        1 MOL      0.102821
     38 N3          4.3210   -3.6080   -2.1310 n         1 MOL     -0.652785
     39 C13         5.3070   -2.9260   -3.0760 c3        1 MOL      0.229508
     40 C14         6.5280   -2.2340   -2.3880 c         1 MOL      0.320971
     41 O6          7.4870   -1.9050   -3.0500 o         1 MOL     -0.516628
     42 C15         4.4850   -1.9340   -3.8930 c3        1 MOL     -0.441219
     43 C16         3.3920   -1.0770   -3.1710 c         1 MOL      0.799065
     44 O7          3.4980   -0.6530   -2.0420 o         1 MOL     -0.725083
     45 O8          2.2880   -0.8490   -3.7290 o         1 MOL     -0.725083
     46 H19         3.8040   -3.0350   -1.4930 hn        1 MOL      0.482009
     47 H20         5.7840   -3.5540   -3.8280 h1        1 MOL      0.082073
     48 H21         3.8810   -2.5380   -4.5740 hc        1 MOL      0.108754
     49 H22         5.1260   -1.2130   -4.3990 hc        1 MOL      0.108754
     50 N4          6.3800   -1.9170   -1.0790 n         1 MOL     -0.074081
     51 C17         7.4500   -1.1910   -0.3480 c3        1 MOL     -0.290751
     52 C18         7.7640    0.3020   -0.6930 c         1 MOL      0.525742
     53 O9          8.8070    0.8270   -0.3640 o         1 MOL     -0.569815
     54 H23         5.5360   -2.0930   -0.5600 hn        1 MOL      0.029594
     55 H24         8.3310   -1.7940   -0.5600 h1        1 MOL      0.126749
     56 H25         7.2560   -1.2760    0.7200 h1        1 MOL      0.126749
     57 N5          6.7600    1.0190   -1.2440 n         1 MOL     -0.277124
     58 C19         6.9600    2.4880   -1.5830 c3        1 MOL      0.028688
     59 C20         7.0540    3.4850   -0.3950 c         1 MOL      0.497180
     60 O10         7.7780    4.4730   -0.5720 o         1 MOL     -0.574538
     61 C21         5.7840    2.8640   -2.4780 c3        1 MOL     -0.349363
     62 C22         4.3490    2.5150   -2.0310 c         1 MOL      0.783370
     63 O11         4.0520    2.0270   -0.8580 o         1 MOL     -0.685538
     64 O12         3.3960    2.9180   -2.7010 o         1 MOL     -0.685538
     65 H26         5.8380    0.6490   -1.3830 hn        1 MOL      0.249087
     66 H27         7.8930    2.5960   -2.1450 h1        1 MOL      0.090763
     67 H28         5.8020    2.3640   -3.4470 hc        1 MOL      0.083888
     68 H29         5.9310    3.9290   -2.6520 hc        1 MOL      0.083888
     69 N6          6.4690    3.1560    0.7450 n         1 MOL     -0.245951
     70 C23         6.3920    4.1100    1.8170 c3        1 MOL     -0.202884
     71 C24         5.0300    4.8190    1.9250 c         1 MOL      0.421190
     72 O13         4.8550    5.7180    2.8180 o         1 MOL     -0.594573
     73 H30         5.9130    2.3120    0.7740 hn        1 MOL      0.233545
     74 H31         7.2690    4.7720    1.8160 h1        1 MOL      0.122275
     75 H32         6.4340    3.5120    2.7300 h1        1 MOL      0.122275
     76 N7          4.0460    4.4300    1.0920 n         1 MOL     -0.070459
     77 C25         2.5590    4.7360    1.2590 c3        1 MOL      0.094908
     78 C26         1.7250    3.5350    1.5810 c         1 MOL      0.336735
     79 O14         2.1780    2.3800    1.5240 o         1 MOL     -0.496717
     80 C27         2.1240    5.4680   -0.0190 c3        1 MOL     -0.031336
     81 C28         2.8900    6.7460   -0.3440 c3        1 MOL     -0.286759
     82 C29         2.1980    7.6100   -1.3520 c         1 MOL      0.696891
     83 N8          2.6810    7.6690   -2.5700 n         1 MOL     -0.817984
     84 O15         1.1700    8.3090   -1.0950 o         1 MOL     -0.597484
     85 H33         4.2270    3.7050    0.4180 hn        1 MOL      0.130458
     86 H34         2.4510    5.4270    2.0980 h1        1 MOL      0.051504
     87 H35         1.1540    5.9110    0.2250 hc        1 MOL      0.051827
     88 H36         2.0230    4.8300   -0.8920 hc        1 MOL      0.051827
     89 H37         3.8600    6.4120   -0.7130 hc        1 MOL      0.073048
     90 H38         3.0320    7.3180    0.5750 hc        1 MOL      0.073048
     91 H39         3.2870    6.8830   -2.7600 hn        1 MOL      0.379238
     92 H40         2.2950    8.2660   -3.2840 hn        1 MOL      0.379238
     93 N9          0.4840    3.7640    2.0070 n         1 MOL     -0.335223
     94 C30        -0.5340    2.7790    2.1600 c3        1 MOL      0.043983
     95 C31        -1.7230    3.0190    1.1900 c         1 MOL      0.268957
     96 O16        -2.3800    4.0950    1.1470 o         1 MOL     -0.552436
     97 C32        -1.0100    2.8720    3.5860 c3        1 MOL      0.182290
     98 C33        -2.2240    1.9500    3.8480 c3        1 MOL     -0.194494
     99 C34        -0.0700    2.5000    4.6940 c3        1 MOL     -0.194494
    100 H41         0.3330    4.7550    2.1160 hn        1 MOL      0.259478
    101 H42        -0.0660    1.8100    1.9970 h1        1 MOL      0.148250
    102 H43        -1.3950    3.8440    3.8750 hc        1 MOL     -0.010481
    103 H44        -1.9470    0.9150    3.6610 hc        1 MOL      0.034064
    104 H45        -2.6910    1.9480    4.8350 hc        1 MOL      0.034064
    105 H46        -3.0170    2.0410    3.1180 hc        1 MOL      0.034064
    106 H47        -0.5680    2.3750    5.6530 hc        1 MOL      0.034064
    107 H48         0.3550    1.5150    4.5530 hc        1 MOL      0.034064
    108 H49         0.6950    3.2770    4.8140 hc        1 MOL      0.034064
    109 N10        -2.0000    1.9710    0.4950 n         1 MOL     -0.067464
    110 C35        -3.1460    1.9230   -0.4620 c3        1 MOL      0.188800
    111 C36        -4.4850    1.3510    0.1870 c         1 MOL      0.236149
    112 O17        -4.3590    0.6180    1.1920 o         1 MOL     -0.272277
    113 C37        -2.6800    1.2360   -1.7440 c3        1 MOL     -0.488137
    114 C38        -3.8130    0.8100   -2.6930 c         1 MOL      0.719103
    115 N11        -4.3520    1.6830   -3.4910 n         1 MOL     -0.748935
    116 O18        -4.2160   -0.3740   -2.7610 o         1 MOL     -0.536211
    117 H50        -1.4040    1.1560    0.4240 hn        1 MOL      0.166283
    118 H51        -3.3650    2.9530   -0.7440 h1        1 MOL      0.023001
    119 H52        -2.1840    0.3530   -1.3560 hc        1 MOL      0.174435
    120 H53        -1.9480    1.8630   -2.2570 hc        1 MOL      0.174435
    121 H54        -4.3240    2.6660   -3.2730 hn        1 MOL      0.344003
    122 H55        -5.0490    1.2820   -4.1100 hn        1 MOL      0.344003
    123 N12        -5.7010    1.5070   -0.3420 n         1 MOL     -0.262453
    124 C39        -6.9180    0.8340    0.1800 c3        1 MOL      0.023403
    125 C40        -6.7750   -0.6550    0.5700 c         1 MOL      0.419442
    126 O19        -7.2150   -1.1460    1.6410 o         1 MOL     -0.544339
    127 C41        -8.0640    0.9180   -0.8680 c3        1 MOL     -0.236943
    128 C42        -8.8230    2.2150   -1.1040 ca        1 MOL      0.108482
    129 C43        -9.8830    2.6310   -0.2490 ca        1 MOL     -0.079900
    130 C44        -8.5250    2.9810   -2.2770 ca        1 MOL     -0.079900
    131 C45       -10.6380    3.7220   -0.5740 ca        1 MOL     -0.373875
    132 C46        -9.2870    4.1570   -2.5720 ca        1 MOL     -0.373875
    133 C47       -10.3190    4.5340   -1.7460 ca        1 MOL      0.397622
    134 O20       -11.1030    5.5920   -2.1090 oh        1 MOL     -0.478822
    135 H56        -5.8610    2.0680   -1.1710 hn        1 MOL      0.145330
    136 H57        -7.1980    1.3030    1.1310 h1        1 MOL      0.070083
    137 H58        -8.7910    0.2180   -0.4540 hc        1 MOL      0.097744
    138 H59        -7.6320    0.6070   -1.8160 hc        1 MOL      0.097744
    139 H60        -9.9920    2.0710    0.6620 ha        1 MOL      0.131419
    140 H61        -7.7620    2.7020   -2.9870 ha        1 MOL      0.131419
    141 H62       -11.4850    3.9510    0.0570 ha        1 MOL      0.168776
    142 H63        -9.2980    4.6630   -3.5360 ha        1 MOL      0.168776
    143 H64       -10.7530    5.9510   -2.9220 ho        1 MOL      0.327069
    144 N13        -6.1430   -1.3410   -0.3480 n         1 MOL     -0.230059
    145 C48        -6.0220   -2.7880   -0.2430 c3        1 MOL     -0.189893
    146 C49        -5.0130   -3.3140    0.8230 c         1 MOL      0.318853
    147 O21        -5.0770   -4.4500    1.2700 o         1 MOL     -0.527717
    148 C50        -5.5320   -3.3120   -1.5920 c3        1 MOL     -0.035003
    149 C51        -6.4380   -2.9400   -2.7610 c3        1 MOL     -0.134536
    150 C52        -7.8840   -3.3330   -2.6380 c         1 MOL      0.675222
    151 O22        -8.7420   -2.4590   -2.9390 o         1 MOL     -0.730497
    152 O23        -8.1970   -4.5090   -2.3160 o         1 MOL     -0.730497
    153 H65        -5.8810   -0.8180   -1.1740 hn        1 MOL      0.319526
    154 H66        -6.9810   -3.2010    0.0770 h1        1 MOL      0.201602
    155 H67        -5.3980   -4.3930   -1.6410 hc        1 MOL      0.059253
    156 H68        -4.5600   -2.8980   -1.8480 hc        1 MOL      0.059253
    157 H69        -5.8660   -3.3110   -3.6100 hc        1 MOL     -0.012725
    158 H70        -6.3880   -1.8610   -2.8960 hc        1 MOL     -0.012725
    159 N14        -4.1540   -2.4820    1.3010 n         1 MOL      0.020728
    160 C53        -3.2640   -2.6210    2.4610 c3        1 MOL      0.006551
    161 C54        -3.9020   -2.0860    3.7510 c         1 MOL      0.380219
    162 O24        -3.8250   -2.7510    4.8100 o         1 MOL     -0.550216
    163 C55        -1.9700   -1.7670    2.1740 c3        1 MOL      0.048132
    164 C56        -1.2630   -2.2070    0.9430 c3        1 MOL     -0.142060
    165 C57        -0.1030   -1.3220    0.5610 c         1 MOL      0.954769
    166 O25         0.8940   -1.8870    0.1160 o         1 MOL     -0.803167
    167 O26        -0.1030   -0.0730    0.5570 o         1 MOL     -0.803167
    168 H71        -4.1430   -1.5630    0.8720 hn        1 MOL      0.036291
    169 H72        -3.0470   -3.6840    2.5710 h1        1 MOL      0.068883
    170 H73        -1.2750   -1.9400    2.9990 hc        1 MOL     -0.005272
    171 H74        -2.0990   -0.6850    2.2150 hc        1 MOL     -0.005272
    172 H75        -1.9720   -2.2950    0.1120 hc        1 MOL     -0.001077
    173 H76        -0.8160   -3.1830    1.1680 hc        1 MOL     -0.001077
    174 N15        -4.7730   -1.0190    3.6940 n         1 MOL     -0.014982
    175 C58        -5.5000   -0.5020    4.8340 c3        1 MOL     -0.257806
    176 H77        -6.1580    0.3030    4.5090 h1        1 MOL      0.088827
    177 H78        -6.0950   -1.3000    5.2780 h1        1 MOL      0.088827
    178 H79        -4.7950   -0.1190    5.5720 h1        1 MOL      0.088827
    179 H80        -4.6790   -0.4410    2.8660 hn        1 MOL      0.085200
    180 Ca1         2.5930    0.1600    0.1270 Ca        1 MOL      1.675552
    181 O27         2.2260   -0.3440    2.6860 oh        1 MOL     -0.912396
    182 H81         1.9930   -1.1040    3.2220 ho        1 MOL      0.421895
    183 H82         2.7050    0.2320    3.2880 ho        1 MOL      0.421895
    184 O28         1.4640    1.2590   -2.1680 oh        1 MOL     -0.912396
    185 H83         2.1810    1.8830   -2.2680 ho        1 MOL      0.421895
    186 H84         1.6490    0.5700   -2.8060 ho        1 MOL      0.421895
    187 O29         4.9330    0.8350    1.7920 oh        1 MOL     -0.912396
    188 H85         5.2210   -0.0740    1.6900 ho        1 MOL      0.421895
    189 H86         5.0040    0.9910    2.7420 ho        1 MOL      0.421895
@<TRIPOS>BOND
     1    1    2 1   
     2    1    4 1   
     3    1    5 1   
     4    1    6 1   
     5    2    3 2   
     6    2    7 1   
     7    7    8 1   
     8    7   15 1   
     9    8    9 1   
    10    8   11 1   
    11    8   16 1   
    12    9   10 2   
    13    9   19 1   
    14   11   12 1   
    15   11   17 1   
    16   11   18 1   
    17   12   13 1   
    18   12   14 1   
    19   19   20 1   
    20   19   27 1   
    21   20   21 1   
    22   20   23 1   
    23   20   28 1   
    24   21   22 2   
    25   21   38 1   
    26   23   24 1   
    27   23   25 1   
    28   23   29 1   
    29   24   26 1   
    30   24   30 1   
    31   24   31 1   
    32   25   32 1   
    33   25   33 1   
    34   25   34 1   
    35   26   35 1   
    36   26   36 1   
    37   26   37 1   
    38   38   39 1   
    39   38   46 1   
    40   39   40 1   
    41   39   42 1   
    42   39   47 1   
    43   40   41 2   
    44   40   50 1   
    45   42   43 1   
    46   42   48 1   
    47   42   49 1   
    48   43   44 1   
    49   43   45 1   
    50   50   51 1   
    51   50   54 1   
    52   51   52 1   
    53   51   55 1   
    54   51   56 1   
    55   52   53 2   
    56   52   57 1   
    57   57   58 1   
    58   57   65 1   
    59   58   59 1   
    60   58   61 1   
    61   58   66 1   
    62   59   60 2   
    63   59   69 1   
    64   61   62 1   
    65   61   67 1   
    66   61   68 1   
    67   62   63 1   
    68   62   64 1   
    69   69   70 1   
    70   69   73 1   
    71   70   71 1   
    72   70   74 1   
    73   70   75 1   
    74   71   72 2   
    75   71   76 1   
    76   76   77 1   
    77   76   85 1   
    78   77   78 1   
    79   77   80 1   
    80   77   86 1   
    81   78   79 2   
    82   78   93 1   
    83   80   81 1   
    84   80   87 1   
    85   80   88 1   
    86   81   82 1   
    87   81   89 1   
    88   81   90 1   
    89   82   83 1   
    90   82   84 2   
    91   83   91 1   
    92   83   92 1   
    93   93   94 1   
    94   93  100 1   
    95   94   95 1   
    96   94   97 1   
    97   94  101 1   
    98   95   96 2   
    99   95  109 1   
   100   97   98 1   
   101   97   99 1   
   102   97  102 1   
   103   98  103 1   
   104   98  104 1   
   105   98  105 1   
   106   99  106 1   
   107   99  107 1   
   108   99  108 1   
   109  109  110 1   
   110  109  117 1   
   111  110  111 1   
   112  110  113 1   
   113  110  118 1   
   114  111  112 2   
   115  111  123 1   
   116  113  114 1   
   117  113  119 1   
   118  113  120 1   
   119  114  115 1   
   120  114  116 2   
   121  115  121 1   
   122  115  122 1   
   123  123  124 1   
   124  123  135 1   
   125  124  125 1   
   126  124  127 1   
   127  124  136 1   
   128  125  126 2   
   129  125  144 1   
   130  127  128 1   
   131  127  137 1   
   132  127  138 1   
   133  128  129 ar  
   134  128  130 ar  
   135  129  131 ar  
   136  129  139 1   
   137  130  132 ar  
   138  130  140 1   
   139  131  133 ar  
   140  131  141 1   
   141  132  133 ar  
   142  132  142 1   
   143  133  134 1   
   144  134  143 1   
   145  144  145 1   
   146  144  153 1   
   147  145  146 1   
   148  145  148 1   
   149  145  154 1   
   150  146  147 2   
   151  146  159 1   
   152  148  149 1   
   153  148  155 1   
   154  148  156 1   
   155  149  150 1   
   156  149  157 1   
   157  149  158 1   
   158  150  151 1   
   159  150  152 1   
   160  159  160 1   
   161  159  168 1   
   162  160  161 1   
   163  160  163 1   
   164  160  169 1   
   165  161  162 2   
   166  161  174 1   
   167  163  164 1   
   168  163  170 1   
   169  163  171 1   
   170  164  165 1   
   171  164  172 1   
   172  164  173 1   
   173  165  166 1   
   174  165  167 1   
   175  174  175 1   
   176  174  179 1   
   177  175  176 1   
   178  175  177 1   
   179  175  178 1   
   180  181  182 1   
   181  181  183 1   
   182  184  185 1   
   183  184  186 1   
   184  187  188 1   
   185  187  189 1   
@<TRIPOS>SUBSTRUCTURE
     1 MOL         1 TEMP              0 ****  ****    0 ROOT
