@<TRIPOS>MOLECULE
MOL
  189   185     1     0     0
SMALL
resp


@<TRIPOS>ATOM
      1 C1         -0.1040    2.2410    6.3450 c3        1 MOL     -0.452361
      2 C2         -0.6800    2.1680    4.8610 c         1 MOL      0.751979
      3 O1         -0.3510    1.2220    4.1400 o         1 MOL     -0.619021
      4 H1          0.0510    1.2300    6.7240 hc        1 MOL      0.118950
      5 H2          0.8450    2.7760    6.3410 hc        1 MOL      0.118950
      6 H3         -0.8140    2.7640    6.9860 hc        1 MOL      0.118950
      7 N1         -1.5570    3.0680    4.4250 n         1 MOL     -0.678807
      8 C3         -2.2790    3.0300    3.1260 c3        1 MOL      0.254144
      9 C4         -2.4990    4.3950    2.3430 c         1 MOL      0.427518
     10 O2         -3.0190    5.3430    2.9540 o         1 MOL     -0.564462
     11 C5         -3.6300    2.3570    3.4090 c3        1 MOL     -0.043038
     12 C6         -4.5520    2.1340    2.1470 c         1 MOL      0.578746
     13 O3         -5.7750    2.3880    2.2300 o         1 MOL     -0.638799
     14 O4         -4.0400    1.7820    1.0520 o         1 MOL     -0.638799
     15 H4         -1.7630    3.8330    5.0580 hn        1 MOL      0.325532
     16 H5         -1.7780    2.3610    2.4350 h1        1 MOL      0.062285
     17 H6         -4.2450    2.9990    4.0530 hc        1 MOL     -0.019212
     18 H7         -3.4990    1.4350    3.9670 hc        1 MOL     -0.019212
     19 N2         -2.2570    4.4360    1.0280 n         1 MOL     -0.122198
     20 C7         -2.4090    5.5820    0.1830 c3        1 MOL      0.044038
     21 C8         -3.4570    5.3400   -0.9140 c         1 MOL      0.522930
     22 O5         -4.1070    6.3200   -1.3330 o         1 MOL     -0.581074
     23 C9         -0.9990    5.9080   -0.4520 c3        1 MOL      0.286117
     24 C10         0.1280    6.0370    0.6200 c3        1 MOL      0.232494
     25 C11        -1.0550    7.2370   -1.2020 c3        1 MOL     -0.370195
     26 C12         1.5240    6.5870    0.2430 c3        1 MOL     -0.217422
     27 H8         -1.9990    3.5600    0.6040 hn        1 MOL     -0.128225
     28 H9         -2.6900    6.3950    0.8460 h1        1 MOL      0.041088
     29 H10        -0.7650    5.0780   -1.1090 hc        1 MOL     -0.017762
     30 H11         0.3600    5.0530    1.0360 hc        1 MOL     -0.101725
     31 H12        -0.2850    6.5810    1.4750 hc        1 MOL     -0.101725
     32 H13        -1.5710    7.9480   -0.5490 hc        1 MOL      0.068248
     33 H14        -0.1360    7.5130   -1.7240 hc        1 MOL      0.068248
     34 H15        -1.7810    7.1320   -2.0010 hc        1 MOL      0.068248
     35 H16         1.4520    7.6710    0.1040 hc        1 MOL      0.047954
     36 H17         2.2250    6.3620    1.0490 hc        1 MOL      0.047954
     37 H18         1.8050    6.0340   -0.6480 hc        1 MOL      0.047954
     38 N3         -3.6470    4.0560   -1.2930 n         1 MOL     -0.468951
     39 C13        -4.4650    3.7050   -2.5680 c3        1 MOL      0.084144
     40 C14        -5.7620    2.9760   -2.3190 c         1 MOL      0.332605
     41 O6         -6.5960    2.8300   -3.2220 o         1 MOL     -0.553021
     42 C15        -3.5760    2.9480   -3.6050 c3        1 MOL     -0.249054
     43 C16        -2.8370    1.7050   -3.0590 c         1 MOL      0.747089
     44 O7         -3.1230    1.3310   -1.8830 o         1 MOL     -0.700577
     45 O8         -1.8920    1.1390   -3.6770 o         1 MOL     -0.700577
     46 H19        -3.4120    3.2670   -0.7170 hn        1 MOL      0.420732
     47 H20        -4.6620    4.6150   -3.1220 h1        1 MOL      0.102334
     48 H21        -2.9680    3.6880   -4.1080 hc        1 MOL      0.074534
     49 H22        -4.2690    2.5540   -4.3580 hc        1 MOL      0.074534
     50 N4         -6.0600    2.4580   -1.1040 n         1 MOL     -0.030773
     51 C17        -7.4240    1.9440   -0.7350 c3        1 MOL     -0.384255
     52 C18        -7.6570    0.4830   -1.0010 c         1 MOL      0.589199
     53 O9         -8.7930    0.1090   -0.9160 o         1 MOL     -0.609254
     54 H23        -5.3460    2.5850   -0.3920 hn        1 MOL      0.099758
     55 H24        -8.1470    2.4090   -1.4070 h1        1 MOL      0.161832
     56 H25        -7.6020    2.1550    0.3270 h1        1 MOL      0.161832
     57 N5         -6.6710   -0.2860   -1.5560 n         1 MOL     -0.184986
     58 C19        -6.7540   -1.6650   -2.1690 c3        1 MOL     -0.134683
     59 C20        -6.7070   -2.8500   -1.0620 c         1 MOL      0.391135
     60 O10        -6.8410   -4.0020   -1.4450 o         1 MOL     -0.496418
     61 C21        -5.5680   -1.8440   -3.1390 c3        1 MOL     -0.134540
     62 C22        -4.1990   -2.0270   -2.5890 c         1 MOL      0.656675
     63 O11        -3.9930   -1.6940   -1.3700 o         1 MOL     -0.670523
     64 O12        -3.3080   -2.5310   -3.2870 o         1 MOL     -0.670523
     65 H26        -5.7950    0.2160   -1.5750 hn        1 MOL      0.128612
     66 H27        -7.6800   -1.6300   -2.7280 h1        1 MOL      0.133169
     67 H28        -5.5950   -1.0270   -3.8670 hc        1 MOL      0.063239
     68 H29        -5.8170   -2.6990   -3.7600 hc        1 MOL      0.063239
     69 N6         -6.7120   -2.5750    0.2010 n         1 MOL     -0.182935
     70 C23        -6.8850   -3.6530    1.1590 c3        1 MOL     -0.187997
     71 C24        -5.6390   -4.5080    1.4540 c         1 MOL      0.559873
     72 O13        -5.8600   -5.5650    2.0970 o         1 MOL     -0.578504
     73 H30        -6.5800   -1.6410    0.5670 hn        1 MOL      0.225365
     74 H31        -7.6730   -4.3700    0.9320 h1        1 MOL      0.097851
     75 H32        -7.2160   -3.1550    2.0770 h1        1 MOL      0.097851
     76 N7         -4.4020   -4.0790    1.0930 n         1 MOL     -0.415382
     77 C25        -3.1110   -4.8580    1.2310 c3        1 MOL      0.083460
     78 C26        -1.9420   -3.8460    1.3870 c         1 MOL      0.631936
     79 O14        -2.0380   -2.7330    0.9230 o         1 MOL     -0.494158
     80 C27        -3.0250   -5.8270    0.0330 c3        1 MOL     -0.269781
     81 C28        -3.4820   -5.2360   -1.3110 c3        1 MOL      0.121361
     82 C29        -3.2740   -6.0210   -2.5810 c         1 MOL      0.536873
     83 N8         -3.2420   -5.4060   -3.6740 n         1 MOL     -0.660328
     84 O15        -3.1840   -7.2280   -2.5620 o         1 MOL     -0.641821
     85 H33        -4.3250   -3.2120    0.5830 hn        1 MOL      0.228457
     86 H34        -3.0700   -5.3470    2.2010 h1        1 MOL      0.019400
     87 H35        -3.6280   -6.7090    0.2710 hc        1 MOL      0.081406
     88 H36        -1.9900   -6.1510   -0.0380 hc        1 MOL      0.081406
     89 H37        -2.9300   -4.3040   -1.4140 hc        1 MOL      0.045355
     90 H38        -4.5530   -5.0430   -1.3620 hc        1 MOL      0.045355
     91 H39        -3.1580   -4.4040   -3.6800 hn        1 MOL      0.321838
     92 H40        -3.1530   -6.0010   -4.4810 hn        1 MOL      0.321838
     93 N9         -0.8960   -4.1310    2.0990 n         1 MOL     -0.477937
     94 C30         0.3690   -3.2930    2.1610 c3        1 MOL     -0.016988
     95 C31         1.2380   -3.7380    0.9730 c         1 MOL      0.516426
     96 O16         1.3980   -4.9030    0.6880 o         1 MOL     -0.577794
     97 C32         1.1340   -3.3550    3.4810 c3        1 MOL      0.048231
     98 C33         2.6030   -3.0110    3.4930 c3        1 MOL     -0.105793
     99 C34         0.5180   -2.3870    4.4640 c3        1 MOL     -0.105793
    100 H41        -0.7840   -5.0220    2.5600 hn        1 MOL      0.272037
    101 H42         0.1210   -2.2620    1.9220 h1        1 MOL      0.105443
    102 H43         1.0640   -4.3460    3.9410 hc        1 MOL      0.019213
    103 H44         3.2030   -3.8300    3.1110 hc        1 MOL      0.026214
    104 H45         2.7950   -2.0700    2.9740 hc        1 MOL      0.026214
    105 H46         2.9170   -3.0100    4.5330 hc        1 MOL      0.026214
    106 H47        -0.5610   -2.4890    4.5100 hc        1 MOL      0.026214
    107 H48         0.8020   -2.6330    5.4890 hc        1 MOL      0.026214
    108 H49         0.9030   -1.3730    4.2990 hc        1 MOL      0.026214
    109 N10         1.9030   -2.8130    0.2790 n         1 MOL     -0.102876
    110 C35         2.8480   -3.0230   -0.7370 c3        1 MOL      0.091357
    111 C36         4.2220   -2.4410   -0.3370 c         1 MOL      0.386277
    112 O17         4.2000   -1.6970    0.6840 o         1 MOL     -0.368003
    113 C37         2.3650   -2.5010   -2.0290 c3        1 MOL     -0.084973
    114 C38         2.5740   -1.0240   -2.2400 c         1 MOL      0.574901
    115 N11         1.5760   -0.2390   -2.1080 n         1 MOL     -0.577636
    116 O18         3.6270   -0.6530   -2.7240 o         1 MOL     -0.574857
    117 H50         1.6310   -1.8820    0.5590 hn        1 MOL     -0.070648
    118 H51         2.9910   -4.1010   -0.7730 h1        1 MOL      0.037314
    119 H52         1.3590   -2.8620   -2.2810 hc        1 MOL      0.030872
    120 H53         2.9800   -2.9160   -2.8280 hc        1 MOL      0.030872
    121 H54         0.6850   -0.5700   -1.7830 hn        1 MOL      0.354140
    122 H55         1.7770    0.7530   -2.0740 hn        1 MOL      0.354140
    123 N12         5.3360   -2.6710   -1.0750 n         1 MOL     -0.489839
    124 C39         6.6570   -2.1470   -0.6980 c3        1 MOL      0.118815
    125 C40         6.7890   -0.6300   -0.2980 c         1 MOL      0.710337
    126 O19         7.3610   -0.3460    0.7720 o         1 MOL     -0.574505
    127 C41         7.5440   -2.3400   -1.9170 c3        1 MOL     -0.152203
    128 C42         8.9950   -2.0960   -1.7010 ca        1 MOL      0.104840
    129 C43         9.8380   -2.9310   -0.9410 ca        1 MOL     -0.291861
    130 C44         9.5260   -0.8910   -2.2060 ca        1 MOL     -0.291861
    131 C45        11.1000   -2.5500   -0.6320 ca        1 MOL     -0.080327
    132 C46        10.8630   -0.5470   -1.9640 ca        1 MOL     -0.080327
    133 C47        11.6750   -1.4210   -1.2740 ca        1 MOL      0.184048
    134 O20        12.9540   -1.1060   -1.0420 oh        1 MOL     -0.490909
    135 H56         5.2530   -3.0110   -2.0230 hn        1 MOL      0.287864
    136 H57         7.0100   -2.6530    0.1930 h1        1 MOL      0.051536
    137 H58         7.2290   -1.7570   -2.7870 hc        1 MOL      0.068163
    138 H59         7.4890   -3.3840   -2.2290 hc        1 MOL      0.068163
    139 H60         9.3380   -3.7960   -0.5350 ha        1 MOL      0.156008
    140 H61         8.8880   -0.2480   -2.7910 ha        1 MOL      0.156008
    141 H62        11.7730   -3.2400   -0.1420 ha        1 MOL      0.102349
    142 H63        11.2850    0.3990   -2.2740 ha        1 MOL      0.102349
    143 H64        13.1870   -0.3150   -1.5340 ho        1 MOL      0.372028
    144 N13         6.1500    0.3200   -1.0310 n         1 MOL     -0.405081
    145 C48         6.2070    1.7710   -0.8520 c3        1 MOL     -0.044170
    146 C49         5.4440    2.1160    0.4890 c         1 MOL      0.322600
    147 O21         5.8890    3.0500    1.1860 o         1 MOL     -0.519912
    148 C50         5.6020    2.5170   -2.0680 c3        1 MOL      0.165406
    149 C51         5.4350    3.9790   -1.9750 c3        1 MOL     -0.330144
    150 C52         4.9580    4.5040   -3.3660 c         1 MOL      0.688170
    151 O22         5.8660    4.7270   -4.2340 o         1 MOL     -0.723137
    152 O23         3.7190    4.6640   -3.6590 o         1 MOL     -0.723137
    153 H65         5.4230   -0.0360   -1.6390 hn        1 MOL      0.165623
    154 H66         7.2440    2.0650   -0.7160 h1        1 MOL      0.107683
    155 H67         4.6340    2.1350   -2.3860 hc        1 MOL      0.005654
    156 H68         6.2810    2.2550   -2.8770 hc        1 MOL      0.005654
    157 H69         6.4310    4.3990   -1.8310 hc        1 MOL      0.051372
    158 H70         4.7400    4.2830   -1.1890 hc        1 MOL      0.051372
    159 N14         4.4680    1.2650    0.8250 n         1 MOL     -0.098565
    160 C53         3.8200    1.3190    2.1530 c3        1 MOL     -0.051749
    161 C54         4.5400    0.5130    3.2650 c         1 MOL      0.385806
    162 O24         4.1760    0.5610    4.4390 o         1 MOL     -0.555202
    163 C55         2.3320    0.9290    1.9940 c3        1 MOL     -0.016241
    164 C56         1.5210    1.7680    0.9810 c3        1 MOL     -0.089887
    165 C57         0.2060    1.1440    0.5330 c         1 MOL      0.514804
    166 O25        -0.7240    1.8900    0.1090 o         1 MOL     -0.589900
    167 O26         0.0700   -0.0890    0.4860 o         1 MOL     -0.589900
    168 H71         4.3260    0.3830    0.3430 hn        1 MOL      0.085685
    169 H72         3.9590    2.3570    2.4490 h1        1 MOL      0.090088
    170 H73         1.9020    1.2010    2.9650 hc        1 MOL      0.085488
    171 H74         2.1590   -0.1380    1.8630 hc        1 MOL      0.085488
    172 H75         2.1050    2.1230    0.1260 hc        1 MOL      0.067047
    173 H76         1.3170    2.7470    1.4290 hc        1 MOL      0.067047
    174 N15         5.5390   -0.2840    2.9120 n         1 MOL     -0.058871
    175 C58         6.2130   -1.1870    3.8300 c3        1 MOL     -0.106579
    176 H77         5.6160   -2.0910    3.9550 h1        1 MOL      0.047268
    177 H78         7.1920   -1.4510    3.4290 h1        1 MOL      0.047268
    178 H79         6.3370   -0.6970    4.7970 h1        1 MOL      0.047268
    179 H80         5.8100   -0.4370    1.9520 hn        1 MOL      0.088929
    180 Ca1        -2.6500   -0.0770    0.1080 Ca        1 MOL      1.704018
    181 O27        -2.1570   -0.4770    2.8430 oh        1 MOL     -0.949020
    182 H81        -1.5380    0.1190    3.2780 ho        1 MOL      0.440063
    183 H82        -2.6520   -0.8550    3.5610 ho        1 MOL      0.440063
    184 O28        -1.3330   -1.0310   -2.0930 oh        1 MOL     -0.949020
    185 H83        -1.9330   -1.7280   -2.3540 ho        1 MOL      0.440063
    186 H84        -1.4670   -0.3430   -2.7470 ho        1 MOL      0.440063
    187 O29        -4.6080   -1.0050    1.6880 oh        1 MOL     -0.949020
    188 H85        -5.4790   -0.6290    1.7930 ho        1 MOL      0.440063
    189 H86        -4.3070   -1.1840    2.5810 ho        1 MOL      0.440063
@<TRIPOS>BOND
     1    1    2 1   
     2    1    4 1   
     3    1    5 1   
     4    1    6 1   
     5    2    3 2   
     6    2    7 1   
     7    7    8 1   
     8    7   15 1   
     9    8    9 1   
    10    8   11 1   
    11    8   16 1   
    12    9   10 2   
    13    9   19 1   
    14   11   12 1   
    15   11   17 1   
    16   11   18 1   
    17   12   13 1   
    18   12   14 1   
    19   19   20 1   
    20   19   27 1   
    21   20   21 1   
    22   20   23 1   
    23   20   28 1   
    24   21   22 2   
    25   21   38 1   
    26   23   24 1   
    27   23   25 1   
    28   23   29 1   
    29   24   26 1   
    30   24   30 1   
    31   24   31 1   
    32   25   32 1   
    33   25   33 1   
    34   25   34 1   
    35   26   35 1   
    36   26   36 1   
    37   26   37 1   
    38   38   39 1   
    39   38   46 1   
    40   39   40 1   
    41   39   42 1   
    42   39   47 1   
    43   40   41 2   
    44   40   50 1   
    45   42   43 1   
    46   42   48 1   
    47   42   49 1   
    48   43   44 1   
    49   43   45 1   
    50   50   51 1   
    51   50   54 1   
    52   51   52 1   
    53   51   55 1   
    54   51   56 1   
    55   52   53 2   
    56   52   57 1   
    57   57   58 1   
    58   57   65 1   
    59   58   59 1   
    60   58   61 1   
    61   58   66 1   
    62   59   60 2   
    63   59   69 1   
    64   61   62 1   
    65   61   67 1   
    66   61   68 1   
    67   62   63 1   
    68   62   64 1   
    69   69   70 1   
    70   69   73 1   
    71   70   71 1   
    72   70   74 1   
    73   70   75 1   
    74   71   72 2   
    75   71   76 1   
    76   76   77 1   
    77   76   85 1   
    78   77   78 1   
    79   77   80 1   
    80   77   86 1   
    81   78   79 2   
    82   78   93 1   
    83   80   81 1   
    84   80   87 1   
    85   80   88 1   
    86   81   82 1   
    87   81   89 1   
    88   81   90 1   
    89   82   83 1   
    90   82   84 2   
    91   83   91 1   
    92   83   92 1   
    93   93   94 1   
    94   93  100 1   
    95   94   95 1   
    96   94   97 1   
    97   94  101 1   
    98   95   96 2   
    99   95  109 1   
   100   97   98 1   
   101   97   99 1   
   102   97  102 1   
   103   98  103 1   
   104   98  104 1   
   105   98  105 1   
   106   99  106 1   
   107   99  107 1   
   108   99  108 1   
   109  109  110 1   
   110  109  117 1   
   111  110  111 1   
   112  110  113 1   
   113  110  118 1   
   114  111  112 2   
   115  111  123 1   
   116  113  114 1   
   117  113  119 1   
   118  113  120 1   
   119  114  115 1   
   120  114  116 2   
   121  115  121 1   
   122  115  122 1   
   123  123  124 1   
   124  123  135 1   
   125  124  125 1   
   126  124  127 1   
   127  124  136 1   
   128  125  126 2   
   129  125  144 1   
   130  127  128 1   
   131  127  137 1   
   132  127  138 1   
   133  128  129 ar  
   134  128  130 ar  
   135  129  131 ar  
   136  129  139 1   
   137  130  132 ar  
   138  130  140 1   
   139  131  133 ar  
   140  131  141 1   
   141  132  133 ar  
   142  132  142 1   
   143  133  134 1   
   144  134  143 1   
   145  144  145 1   
   146  144  153 1   
   147  145  146 1   
   148  145  148 1   
   149  145  154 1   
   150  146  147 2   
   151  146  159 1   
   152  148  149 1   
   153  148  155 1   
   154  148  156 1   
   155  149  150 1   
   156  149  157 1   
   157  149  158 1   
   158  150  151 1   
   159  150  152 1   
   160  159  160 1   
   161  159  168 1   
   162  160  161 1   
   163  160  163 1   
   164  160  169 1   
   165  161  162 2   
   166  161  174 1   
   167  163  164 1   
   168  163  170 1   
   169  163  171 1   
   170  164  165 1   
   171  164  172 1   
   172  164  173 1   
   173  165  166 1   
   174  165  167 1   
   175  174  175 1   
   176  174  179 1   
   177  175  176 1   
   178  175  177 1   
   179  175  178 1   
   180  181  182 1   
   181  181  183 1   
   182  184  185 1   
   183  184  186 1   
   184  187  188 1   
   185  187  189 1   
@<TRIPOS>SUBSTRUCTURE
     1 MOL         1 TEMP              0 ****  ****    0 ROOT
