@<TRIPOS>MOLECULE
MOL
  179   176     1     0     0
SMALL
resp


@<TRIPOS>ATOM
      1 C1          1.0630    4.7760    4.0870 c3        1 MOL     -0.345722
      2 C2          0.4420    3.9510    2.9840 c         1 MOL      0.657538
      3 O1          1.0930    3.9060    1.9240 o         1 MOL     -0.546808
      4 H1          1.7620    4.1590    4.6520 hc        1 MOL      0.082836
      5 H2          1.5960    5.6220    3.6520 hc        1 MOL      0.082836
      6 H3          0.2810    5.1410    4.7520 hc        1 MOL      0.082836
      7 N1         -0.7390    3.3300    3.1820 n         1 MOL     -0.606949
      8 C3         -1.4850    2.7440    2.0180 c3        1 MOL     -0.104516
      9 C4         -2.3730    3.9140    1.4720 c         1 MOL      0.715731
     10 O2         -3.5810    3.9480    1.7620 o         1 MOL     -0.488955
     11 C5         -2.3170    1.5480    2.5740 c3        1 MOL     -0.144636
     12 C6         -3.1770    0.7560    1.5850 c         1 MOL      0.806544
     13 O3         -4.0860   -0.0710    2.0120 o         1 MOL     -0.743157
     14 O4         -2.9240    1.0140    0.3250 o         1 MOL     -0.743157
     15 H4         -1.1390    3.4370    4.1070 hn        1 MOL      0.373492
     16 H5         -0.8080    2.4130    1.2300 h1        1 MOL      0.100278
     17 H6         -3.0360    2.0850    3.1900 hc        1 MOL      0.041723
     18 H7         -1.8030    0.8050    3.1720 hc        1 MOL      0.041723
     19 N2         -1.7400    4.8980    0.7490 n         1 MOL     -0.599074
     20 C7         -2.3660    6.0270    0.1450 c3        1 MOL      0.045132
     21 C8         -3.5360    5.6470   -0.7290 c         1 MOL      0.422680
     22 O5         -4.5370    6.3990   -0.9190 o         1 MOL     -0.541212
     23 C9         -1.3520    7.0140   -0.5320 c3        1 MOL     -0.312393
     24 C10        -0.3470    7.4450    0.5130 c3        1 MOL      0.352936
     25 C11         0.4080    8.6680    0.0630 c3        1 MOL     -0.082728
     26 C12         1.6760    8.7270    0.9210 c3        1 MOL     -0.000569
     27 N3          1.5330    9.4960    2.1980 n4        1 MOL     -0.515975
     28 H8         -0.8300    4.6440    0.3850 hn        1 MOL      0.370575
     29 H9         -2.8800    6.5470    0.9640 h1        1 MOL      0.077424
     30 H10        -1.9450    7.8780   -0.8270 hc        1 MOL      0.113767
     31 H11        -0.8900    6.5520   -1.4060 hc        1 MOL      0.113767
     32 H12         0.3090    6.6190    0.7880 hc        1 MOL     -0.071217
     33 H13        -0.8390    7.7220    1.4460 hc        1 MOL     -0.071217
     34 H14        -0.1550    9.5980    0.1210 hc        1 MOL      0.043585
     35 H15         0.7770    8.5480   -0.9530 hc        1 MOL      0.043585
     36 H16         2.3430    9.3270    0.2930 hx        1 MOL      0.110149
     37 H17         2.0720    7.7160    1.0550 hx        1 MOL      0.110149
     38 H18         1.0210    8.8550    2.7800 hn        1 MOL      0.371655
     39 H19         2.4320    9.7400    2.5910 hn        1 MOL      0.371655
     40 H20         1.0870   10.3910    2.0490 hn        1 MOL      0.371655
     41 N4         -3.3910    4.5600   -1.4860 n         1 MOL     -0.256239
     42 C13        -4.4440    4.0400   -2.4220 c3        1 MOL      0.026658
     43 C14        -5.5870    3.3080   -1.6510 c         1 MOL      0.402725
     44 O6         -6.7540    3.3200   -2.1330 o         1 MOL     -0.541452
     45 C15        -3.8190    3.0290   -3.4670 c3        1 MOL     -0.377003
     46 C16        -2.9510    2.0090   -2.8540 c         1 MOL      0.916330
     47 O7         -1.7830    2.3650   -2.4810 o         1 MOL     -0.754710
     48 O8         -3.2100    0.8080   -2.9260 o         1 MOL     -0.754710
     49 H21        -2.5140    4.0720   -1.3960 hn        1 MOL      0.205384
     50 H22        -4.9500    4.8420   -2.9640 h1        1 MOL      0.112427
     51 H23        -3.4020    3.4610   -4.3750 hc        1 MOL      0.103721
     52 H24        -4.6860    2.5340   -3.9030 hc        1 MOL      0.103721
     53 N5         -5.2310    2.6740   -0.5340 n         1 MOL      0.041238
     54 C17        -6.1870    2.0580    0.4040 c3        1 MOL     -0.153190
     55 C18        -6.7000    0.6800    0.0290 c         1 MOL      0.423913
     56 O9         -7.8690    0.3520    0.3640 o         1 MOL     -0.558851
     57 H25        -4.2870    2.7870   -0.2210 hn        1 MOL     -0.040100
     58 H26        -7.0800    2.6790    0.4710 h1        1 MOL      0.114996
     59 H27        -5.8300    2.1090    1.4290 h1        1 MOL      0.114996
     60 N6         -5.8970   -0.1010   -0.7300 n         1 MOL     -0.057192
     61 C19        -6.3470   -1.4140   -1.2790 c3        1 MOL     -0.183320
     62 C20        -6.1180   -2.4790   -0.2150 c         1 MOL      0.395274
     63 O10        -6.0960   -3.6970   -0.5060 o         1 MOL     -0.486567
     64 C21        -5.6000   -1.6210   -2.6480 c3        1 MOL     -0.037727
     65 C22        -4.2330   -2.2000   -2.5570 c         1 MOL      0.502230
     66 N7         -3.9290   -2.8960   -3.5950 n         1 MOL     -0.669980
     67 O11        -3.3620   -1.9710   -1.7070 o         1 MOL     -0.505006
     68 H28        -4.9710    0.2780   -0.8270 hn        1 MOL     -0.016932
     69 H29        -7.3960   -1.3590   -1.5810 h1        1 MOL      0.157412
     70 H30        -5.5470   -0.7450   -3.2980 hc        1 MOL      0.054776
     71 H31        -6.1830   -2.3460   -3.2190 hc        1 MOL      0.054776
     72 H32        -4.6440   -3.0340   -4.2960 hn        1 MOL      0.335994
     73 H33        -3.0040   -3.3060   -3.5950 hn        1 MOL      0.335994
     74 N8         -5.7860   -2.0520    0.9590 n         1 MOL     -0.258006
     75 C23        -5.6040   -3.0230    2.0510 c3        1 MOL     -0.160811
     76 C24        -4.1890   -3.5910    2.2160 c         1 MOL      0.681515
     77 O12        -3.9710   -4.3040    3.1710 o         1 MOL     -0.583190
     78 H34        -5.4820   -1.1000    1.1460 hn        1 MOL      0.344535
     79 H35        -6.3310   -3.8360    2.0500 h1        1 MOL      0.101787
     80 H36        -5.8520   -2.5870    3.0260 h1        1 MOL      0.101787
     81 N9         -3.2080   -3.0760    1.4600 n         1 MOL     -0.343445
     82 C25        -1.8580   -3.5350    1.4580 c3        1 MOL     -0.076466
     83 C26        -0.7430   -2.4880    1.2510 c         1 MOL      0.565771
     84 O13        -0.9250   -1.5300    0.5320 o         1 MOL     -0.581463
     85 C27        -1.6740   -4.6020    0.3380 c3        1 MOL      0.192833
     86 C28        -2.5670   -5.7720    0.5210 ca        1 MOL     -0.279934
     87 C29        -3.6650   -5.8860   -0.3810 ca        1 MOL     -0.021375
     88 C30        -2.5180   -6.6040    1.6470 ca        1 MOL     -0.021375
     89 C31        -4.6200   -6.8450   -0.2000 ca        1 MOL     -0.323741
     90 C32        -3.4140   -7.6270    1.8260 ca        1 MOL     -0.323741
     91 C33        -4.4940   -7.7430    0.9070 ca        1 MOL      0.417554
     92 O14        -5.3550   -8.7300    1.0950 oh        1 MOL     -0.491786
     93 H37        -3.4220   -2.3000    0.8430 hn        1 MOL      0.246981
     94 H38        -1.7160   -4.0910    2.3900 h1        1 MOL      0.063577
     95 H39        -0.6410   -4.9340    0.3900 hc        1 MOL     -0.001613
     96 H40        -1.7510   -4.0890   -0.6140 hc        1 MOL     -0.001613
     97 H41        -3.9320   -5.0910   -1.0520 ha        1 MOL      0.104800
     98 H42        -1.6020   -6.5720    2.2280 ha        1 MOL      0.104800
     99 H43        -5.5260   -6.9250   -0.7960 ha        1 MOL      0.151329
    100 H44        -3.1940   -8.3550    2.5930 ha        1 MOL      0.151329
    101 H45        -4.9870   -9.3740    1.7100 ho        1 MOL      0.354827
    102 N10         0.5000   -2.7640    1.7710 n         1 MOL     -0.405084
    103 C34         1.7240   -1.9950    1.4150 c3        1 MOL     -0.252991
    104 C35         2.9330   -2.9130    1.1650 c         1 MOL      0.559589
    105 O15         3.3260   -3.7760    1.9410 o         1 MOL     -0.528493
    106 C36         2.1490   -0.9890    2.4960 c3        1 MOL      0.007284
    107 C37         2.5420   -1.6680    3.8360 c3        1 MOL     -0.099874
    108 C38         1.1240    0.1530    2.7050 c3        1 MOL     -0.321911
    109 C39         2.7660   -0.7390    5.0110 c3        1 MOL     -0.272453
    110 H46         0.5450   -3.4730    2.4990 hn        1 MOL      0.295519
    111 H47         1.4630   -1.4950    0.4830 h1        1 MOL      0.227458
    112 H48         3.0400   -0.4620    2.1460 hc        1 MOL      0.049261
    113 H49         3.5340   -2.0970    3.7250 hc        1 MOL      0.081526
    114 H50         1.7750   -2.3660    4.1900 hc        1 MOL      0.081526
    115 H51         0.6620    0.4300    1.7540 hc        1 MOL      0.129729
    116 H52         0.3650   -0.3680    3.2960 hc        1 MOL      0.129729
    117 H53         1.3910    1.0180    3.3120 hc        1 MOL      0.129729
    118 H54         3.0180   -1.2580    5.9310 hc        1 MOL      0.072729
    119 H55         3.7350   -0.2790    4.8370 hc        1 MOL      0.072729
    120 H56         2.0400    0.0540    5.1690 hc        1 MOL      0.072729
    121 N11         3.5300   -2.6750    0.0000 n         1 MOL     -0.396890
    122 C40         4.7990   -3.2490   -0.3730 c3        1 MOL      0.104033
    123 C41         5.9420   -2.6750    0.3760 c         1 MOL      0.360105
    124 O16         5.7890   -1.6470    1.0780 o         1 MOL     -0.345301
    125 C42         4.9280   -3.3480   -1.9350 c3        1 MOL     -0.491431
    126 O17         5.1990   -2.1580   -2.5480 oh        1 MOL     -0.336766
    127 H57         3.1580   -1.9350   -0.5660 hn        1 MOL      0.252688
    128 H58         4.8790   -4.2660    0.0060 h1        1 MOL      0.075404
    129 H59         4.0030   -3.7790   -2.3150 h1        1 MOL      0.202150
    130 H60         5.7410   -4.0310   -2.1870 h1        1 MOL      0.202150
    131 H61         4.5440   -2.0180   -3.2390 ho        1 MOL      0.388575
    132 N12         7.1260   -3.2150    0.0810 n         1 MOL     -0.334801
    133 C43         8.4200   -2.5860    0.3570 c3        1 MOL      0.037561
    134 C44         8.9060   -1.5540   -0.5890 c         1 MOL      0.485381
    135 O18         9.8110   -0.7750   -0.2200 o         1 MOL     -0.533333
    136 C45         9.4980   -3.5880    0.5880 c3        1 MOL     -0.216237
    137 H62         7.1460   -4.0490   -0.4870 hn        1 MOL      0.261436
    138 H63         8.2660   -2.1500    1.3470 h1        1 MOL      0.128138
    139 H64         9.6510   -4.1550   -0.3280 hc        1 MOL      0.071846
    140 H65        10.4790   -3.1910    0.8340 hc        1 MOL      0.071846
    141 H66         9.1790   -4.2890    1.3640 hc        1 MOL      0.071846
    142 N13         8.2780   -1.4650   -1.7640 n         1 MOL     -0.390153
    143 C46         8.4980   -0.3100   -2.5540 c3        1 MOL      0.136053
    144 C47         7.4270    0.7660   -2.2180 c         1 MOL      0.328640
    145 O19         7.7050    1.9500   -2.3500 o         1 MOL     -0.494078
    146 C48         8.3910   -0.7460   -4.0130 c3        1 MOL     -0.112842
    147 H67         7.5860   -2.1090   -2.1090 hn        1 MOL      0.275515
    148 H68         9.4860    0.1210   -2.4300 h1        1 MOL      0.100150
    149 H69         7.4520   -1.3110   -4.0680 hc        1 MOL      0.025061
    150 H70         8.4700    0.1080   -4.6870 hc        1 MOL      0.025061
    151 H71         9.2460   -1.3860   -4.2020 hc        1 MOL      0.025061
    152 N14         6.3250    0.3680   -1.4800 n         1 MOL     -0.061340
    153 C49         5.4580    1.3490   -0.7890 c3        1 MOL     -0.197770
    154 C50         5.9050    1.9010    0.5860 c         1 MOL      0.502428
    155 O20         5.4830    2.9880    1.0080 o         1 MOL     -0.561481
    156 C51         4.0810    0.7510   -0.6550 c3        1 MOL      0.167423
    157 C52         3.2350    0.6720   -1.8620 c3        1 MOL     -0.112064
    158 C53         1.7860    0.2150   -1.6590 c         1 MOL      0.860661
    159 O21         1.4190   -0.8930   -2.0610 o         1 MOL     -0.812089
    160 O22         0.9230    0.9020   -1.1310 o         1 MOL     -0.812089
    161 H72         6.0100   -0.5870   -1.5460 hn        1 MOL      0.048175
    162 H73         5.3900    2.2620   -1.3820 h1        1 MOL      0.113567
    163 H74         3.4340    1.2670    0.0520 hc        1 MOL      0.019769
    164 H75         4.1920   -0.2400   -0.2030 hc        1 MOL      0.019769
    165 H76         3.6980   -0.0940   -2.4820 hc        1 MOL     -0.023658
    166 H77         3.2580    1.6530   -2.3360 hc        1 MOL     -0.023658
    167 N15         6.6740    1.1240    1.2920 n         1 MOL     -0.088142
    168 C54         7.3330    1.5870    2.4620 c3        1 MOL     -0.304905
    169 H78         7.8820    0.7650    2.9190 h1        1 MOL      0.112077
    170 H79         8.0290    2.3830    2.1960 h1        1 MOL      0.112077
    171 H80         6.5950    1.9690    3.1670 h1        1 MOL      0.112077
    172 H81         6.6760    0.1220    1.1500 hn        1 MOL      0.093181
    173 Ca1        -1.2100   -0.2730   -1.7060 Ca        1 MOL      1.757218
    174 O23        -0.8240   -0.4080   -4.4430 oh        1 MOL     -0.824429
    175 H82        -0.7980    0.2680   -5.1160 ho        1 MOL      0.402904
    176 H83        -1.0810   -1.2010   -4.9050 ho        1 MOL      0.402904
    177 O24        -0.6260   -2.7890   -2.6670 oh        1 MOL     -0.824429
    178 H84         0.2790   -3.0380   -2.4570 ho        1 MOL      0.402904
    179 H85        -0.6140   -2.6280   -3.6090 ho        1 MOL      0.402904
@<TRIPOS>BOND
     1    1    2 1   
     2    1    4 1   
     3    1    5 1   
     4    1    6 1   
     5    2    3 2   
     6    2    7 1   
     7    7    8 1   
     8    7   15 1   
     9    8    9 1   
    10    8   11 1   
    11    8   16 1   
    12    9   10 2   
    13    9   19 1   
    14   11   12 1   
    15   11   17 1   
    16   11   18 1   
    17   12   13 1   
    18   12   14 1   
    19   19   20 1   
    20   19   28 1   
    21   20   21 1   
    22   20   23 1   
    23   20   29 1   
    24   21   22 2   
    25   21   41 1   
    26   23   24 1   
    27   23   30 1   
    28   23   31 1   
    29   24   25 1   
    30   24   32 1   
    31   24   33 1   
    32   25   26 1   
    33   25   34 1   
    34   25   35 1   
    35   26   27 1   
    36   26   36 1   
    37   26   37 1   
    38   27   38 1   
    39   27   39 1   
    40   27   40 1   
    41   41   42 1   
    42   41   49 1   
    43   42   43 1   
    44   42   45 1   
    45   42   50 1   
    46   43   44 2   
    47   43   53 1   
    48   45   46 1   
    49   45   51 1   
    50   45   52 1   
    51   46   47 1   
    52   46   48 1   
    53   53   54 1   
    54   53   57 1   
    55   54   55 1   
    56   54   58 1   
    57   54   59 1   
    58   55   56 2   
    59   55   60 1   
    60   60   61 1   
    61   60   68 1   
    62   61   62 1   
    63   61   64 1   
    64   61   69 1   
    65   62   63 2   
    66   62   74 1   
    67   64   65 1   
    68   64   70 1   
    69   64   71 1   
    70   65   66 1   
    71   65   67 2   
    72   66   72 1   
    73   66   73 1   
    74   74   75 1   
    75   74   78 1   
    76   75   76 1   
    77   75   79 1   
    78   75   80 1   
    79   76   77 2   
    80   76   81 1   
    81   81   82 1   
    82   81   93 1   
    83   82   83 1   
    84   82   85 1   
    85   82   94 1   
    86   83   84 2   
    87   83  102 1   
    88   85   86 1   
    89   85   95 1   
    90   85   96 1   
    91   86   87 ar  
    92   86   88 ar  
    93   87   89 ar  
    94   87   97 1   
    95   88   90 ar  
    96   88   98 1   
    97   89   91 ar  
    98   89   99 1   
    99   90   91 ar  
   100   90  100 1   
   101   91   92 1   
   102   92  101 1   
   103  102  103 1   
   104  102  110 1   
   105  103  104 1   
   106  103  106 1   
   107  103  111 1   
   108  104  105 2   
   109  104  121 1   
   110  106  107 1   
   111  106  108 1   
   112  106  112 1   
   113  107  109 1   
   114  107  113 1   
   115  107  114 1   
   116  108  115 1   
   117  108  116 1   
   118  108  117 1   
   119  109  118 1   
   120  109  119 1   
   121  109  120 1   
   122  121  122 1   
   123  121  127 1   
   124  122  123 1   
   125  122  125 1   
   126  122  128 1   
   127  123  124 2   
   128  123  132 1   
   129  125  126 1   
   130  125  129 1   
   131  125  130 1   
   132  126  131 1   
   133  132  133 1   
   134  132  137 1   
   135  133  134 1   
   136  133  136 1   
   137  133  138 1   
   138  134  135 2   
   139  134  142 1   
   140  136  139 1   
   141  136  140 1   
   142  136  141 1   
   143  142  143 1   
   144  142  147 1   
   145  143  144 1   
   146  143  146 1   
   147  143  148 1   
   148  144  145 2   
   149  144  152 1   
   150  146  149 1   
   151  146  150 1   
   152  146  151 1   
   153  152  153 1   
   154  152  161 1   
   155  153  154 1   
   156  153  156 1   
   157  153  162 1   
   158  154  155 2   
   159  154  167 1   
   160  156  157 1   
   161  156  163 1   
   162  156  164 1   
   163  157  158 1   
   164  157  165 1   
   165  157  166 1   
   166  158  159 1   
   167  158  160 1   
   168  167  168 1   
   169  167  172 1   
   170  168  169 1   
   171  168  170 1   
   172  168  171 1   
   173  174  175 1   
   174  174  176 1   
   175  177  178 1   
   176  177  179 1   
@<TRIPOS>SUBSTRUCTURE
     1 MOL         1 TEMP              0 ****  ****    0 ROOT
