@<TRIPOS>MOLECULE
MOL
  175   173     1     0     0
SMALL
resp


@<TRIPOS>ATOM
      1 C1          0.6440    3.7880    5.3470 c3        1 MOL     -0.413321
      2 C2         -0.1180    3.8700    3.9920 c         1 MOL      0.674410
      3 O1          0.5210    4.0880    2.9350 o         1 MOL     -0.540281
      4 H1          0.9640    2.7610    5.5210 hc        1 MOL      0.103050
      5 H2          1.5170    4.4400    5.3120 hc        1 MOL      0.103050
      6 H3         -0.0150    4.1050    6.1550 hc        1 MOL      0.103050
      7 N1         -1.4310    3.6710    3.9570 n         1 MOL     -0.614713
      8 C3         -2.1600    3.4920    2.6490 c3        1 MOL      0.077147
      9 C4         -2.2010    4.7680    1.8840 c         1 MOL      0.695369
     10 O2         -2.3010    5.8540    2.3620 o         1 MOL     -0.584052
     11 C5         -3.5260    2.8630    2.9690 c3        1 MOL     -0.272296
     12 C6         -4.1570    2.3280    1.7200 c         1 MOL      0.825734
     13 O3         -3.4070    2.1490    0.7220 o         1 MOL     -0.711953
     14 O4         -5.3160    1.9660    1.7490 o         1 MOL     -0.711953
     15 H4         -1.9140    3.4070    4.8080 hn        1 MOL      0.312727
     16 H5         -1.5660    2.8070    2.0320 h1        1 MOL      0.123550
     17 H6         -4.1470    3.6620    3.3750 hc        1 MOL      0.051174
     18 H7         -3.4400    2.0630    3.7050 hc        1 MOL      0.051174
     19 N2         -2.1310    4.6180    0.5390 n         1 MOL     -0.706007
     20 C7         -2.4150    5.6880   -0.4340 c3        1 MOL      0.527966
     21 C8         -3.2610    5.2100   -1.6280 c         1 MOL      0.535021
     22 O5         -3.2380    5.9030   -2.6170 o         1 MOL     -0.570933
     23 C9         -1.0990    6.3760   -0.8610 c3        1 MOL     -0.521179
     24 H8         -2.0630    3.6620    0.2190 hn        1 MOL      0.393314
     25 H9         -3.0560    6.4330    0.0470 h1        1 MOL     -0.056664
     26 H10        -0.6320    5.7370   -1.6050 hc        1 MOL      0.125178
     27 H11        -1.4080    7.3170   -1.3270 hc        1 MOL      0.125178
     28 H12        -0.5040    6.4820    0.0450 hc        1 MOL      0.125178
     29 N3         -4.0490    4.0940   -1.5670 n         1 MOL     -0.606875
     30 C10        -4.8890    3.5570   -2.7060 c3        1 MOL      0.284286
     31 C11        -6.1170    2.7660   -2.2900 c         1 MOL      0.339408
     32 O6         -7.0200    2.5170   -3.1390 o         1 MOL     -0.551970
     33 C12        -4.0850    2.7280   -3.6790 c3        1 MOL      0.050747
     34 C13        -3.2730    1.5400   -3.1020 c         1 MOL      0.601897
     35 O7         -3.7620    0.9190   -2.1520 o         1 MOL     -0.663806
     36 O8         -2.0520    1.4470   -3.4670 o         1 MOL     -0.663806
     37 H13        -3.9650    3.5330   -0.7420 hn        1 MOL      0.203767
     38 H14        -5.4330    4.2720   -3.3400 h1        1 MOL      0.009578
     39 H15        -3.3260    3.3860   -4.1010 hc        1 MOL     -0.023267
     40 H16        -4.7040    2.4470   -4.5320 hc        1 MOL     -0.023267
     41 N4         -6.2810    2.2440   -1.0510 n         1 MOL     -0.103921
     42 C14        -7.3690    1.3960   -0.5670 c3        1 MOL     -0.427688
     43 C15        -7.3180   -0.0770   -0.9550 c         1 MOL      0.662609
     44 O9         -8.2560   -0.8280   -0.7390 o         1 MOL     -0.643701
     45 H17        -5.5170    2.4670   -0.4180 hn        1 MOL      0.147462
     46 H18        -8.3310    1.7220   -0.9630 h1        1 MOL      0.168598
     47 H19        -7.4250    1.4880    0.5160 h1        1 MOL      0.168598
     48 N5         -6.1990   -0.5710   -1.5540 n         1 MOL     -0.256778
     49 C16        -6.2230   -1.9560   -2.1090 c3        1 MOL      0.038337
     50 C17        -6.2430   -3.2190   -1.1890 c         1 MOL      0.484760
     51 O10        -6.3290   -4.3120   -1.6890 o         1 MOL     -0.519273
     52 C18        -5.0350   -2.0660   -3.1350 c3        1 MOL     -0.089607
     53 C19        -3.6560   -2.2120   -2.5510 c         1 MOL      0.634439
     54 N6         -2.6980   -2.2040   -3.4630 n         1 MOL     -0.609890
     55 O11        -3.4450   -2.1300   -1.3830 o         1 MOL     -0.710862
     56 H20        -5.5160    0.1400   -1.7730 hn        1 MOL      0.124564
     57 H21        -7.1500   -2.0220   -2.6700 h1        1 MOL      0.071969
     58 H22        -5.0440   -1.2390   -3.8320 hc        1 MOL      0.023504
     59 H23        -5.2370   -2.9510   -3.7360 hc        1 MOL      0.023504
     60 H24        -3.0260   -2.1960   -4.4170 hn        1 MOL      0.308210
     61 H25        -1.7110   -2.2320   -3.2540 hn        1 MOL      0.308210
     62 N7         -6.2370   -3.0410    0.1490 n         1 MOL     -0.287040
     63 C20        -6.3070   -4.1940    1.0900 c3        1 MOL     -0.167824
     64 C21        -4.9530   -4.8210    1.5060 c         1 MOL      0.476804
     65 O12        -4.9370   -5.9380    2.1150 o         1 MOL     -0.581338
     66 H26        -6.2300   -2.0880    0.4860 hn        1 MOL      0.276227
     67 H27        -6.9360   -4.9580    0.6410 h1        1 MOL      0.107081
     68 H28        -6.7670   -3.8780    2.0230 h1        1 MOL      0.107081
     69 N8         -3.8340   -4.1750    1.1250 n         1 MOL     -0.066393
     70 C22        -2.4390   -4.6720    1.3710 c3        1 MOL     -0.352371
     71 C23        -1.4630   -3.5070    1.5760 c         1 MOL      0.453188
     72 O13        -1.8310   -2.3780    1.1170 o         1 MOL     -0.448045
     73 C24        -1.8820   -5.4670    0.1210 c3        1 MOL      0.565928
     74 C25        -2.5070   -6.8440   -0.0030 c3        1 MOL     -0.465801
     75 O14        -2.0360   -4.7670   -1.1260 oh        1 MOL     -0.649855
     76 H29        -3.9960   -3.2870    0.6850 hn        1 MOL      0.089847
     77 H30        -2.5300   -5.3430    2.2240 h1        1 MOL      0.138485
     78 H31        -0.7990   -5.5720    0.2420 h1        1 MOL     -0.022147
     79 H32        -2.6560   -4.0550   -0.9400 ho        1 MOL      0.422571
     80 H33        -3.5650   -6.6990   -0.2000 hc        1 MOL      0.110156
     81 H34        -2.0920   -7.4180   -0.8300 hc        1 MOL      0.110156
     82 H35        -2.2170   -7.4060    0.8820 hc        1 MOL      0.110156
     83 N9         -0.2910   -3.7440    2.1450 n         1 MOL     -0.273546
     84 C26         0.8160   -2.8580    2.0130 c3        1 MOL     -0.243247
     85 C27         1.6140   -3.1430    0.7420 c         1 MOL      0.644569
     86 O15         2.1410   -4.2430    0.5940 o         1 MOL     -0.602795
     87 C28         1.6230   -3.0270    3.2940 c3        1 MOL      0.295646
     88 C29         0.8970   -2.7010    4.6040 c3        1 MOL     -0.080849
     89 C30         2.8190   -2.0860    3.2040 c3        1 MOL     -0.370879
     90 C31         1.2150   -3.6930    5.7560 c3        1 MOL     -0.011051
     91 H36        -0.0340   -4.6850    2.4140 hn        1 MOL      0.230060
     92 H37         0.4630   -1.8400    1.8790 h1        1 MOL      0.188117
     93 H38         2.0040   -4.0550    3.2900 hc        1 MOL     -0.014112
     94 H39        -0.1770   -2.6380    4.4490 hc        1 MOL      0.017625
     95 H40         1.2130   -1.7100    4.9300 hc        1 MOL      0.017625
     96 H41         3.4850   -2.4870    2.4340 hc        1 MOL      0.075990
     97 H42         2.5990   -1.0280    3.0820 hc        1 MOL      0.075990
     98 H43         3.3090   -2.1780    4.1770 hc        1 MOL      0.075990
     99 H44         1.0090   -3.2640    6.7370 hc        1 MOL     -0.004977
    100 H45         0.5870   -4.5750    5.6400 hc        1 MOL     -0.004977
    101 H46         2.2500   -4.0160    5.7300 hc        1 MOL     -0.004977
    102 N10         1.7950   -2.0870   -0.0250 n         1 MOL     -0.138811
    103 C32         2.5760   -1.9730   -1.2640 c3        1 MOL     -0.111091
    104 C33         4.0500   -1.4790   -0.9640 c         1 MOL      0.712583
    105 O16         4.2490   -0.6900   -0.0360 o         1 MOL     -0.501131
    106 C34         1.8750   -1.0110   -2.1760 c3        1 MOL     -0.169274
    107 C35         0.4490   -1.3980   -2.4360 c         1 MOL      0.741207
    108 O17        -0.5060   -0.8980   -1.7230 o         1 MOL     -0.658000
    109 O18         0.2460   -2.0580   -3.4920 o         1 MOL     -0.658000
    110 H47         1.3050   -1.2850    0.3290 hn        1 MOL     -0.133507
    111 H48         2.5940   -3.0000   -1.6430 h1        1 MOL      0.087326
    112 H49         2.4160   -0.9130   -3.1180 hc        1 MOL      0.066118
    113 H50         1.7870   -0.0570   -1.6540 hc        1 MOL      0.066118
    114 N11         5.0090   -1.7570   -1.8160 n         1 MOL     -0.913761
    115 C36         6.4360   -1.4460   -1.4590 c3        1 MOL      0.686593
    116 C37         6.6210    0.0460   -1.1110 c         1 MOL      0.146422
    117 O19         7.4020    0.2330   -0.1400 o         1 MOL     -0.461466
    118 C38         7.4960   -1.8040   -2.5940 c3        1 MOL     -0.370962
    119 C39         8.9530   -1.6160   -2.3240 ca        1 MOL      0.193370
    120 C40         9.5270   -1.9980   -1.0830 ca        1 MOL     -0.176543
    121 C41         9.8650   -1.2840   -3.3480 ca        1 MOL     -0.176543
    122 C42        10.8900   -2.0020   -0.8660 ca        1 MOL     -0.123924
    123 C43        11.2200   -1.2310   -3.1090 ca        1 MOL     -0.123924
    124 C44        11.7280   -1.4940   -1.8680 ca        1 MOL     -0.085409
    125 H51         4.7390   -2.2490   -2.6520 hn        1 MOL      0.397171
    126 H52         6.7470   -2.0310   -0.6000 h1        1 MOL      0.014263
    127 H53         7.2360   -1.3120   -3.5340 hc        1 MOL      0.090683
    128 H54         7.3970   -2.8760   -2.7350 hc        1 MOL      0.090683
    129 H55         8.8590   -2.2450   -0.2730 ha        1 MOL      0.105796
    130 H56         9.4460   -0.9490   -4.2850 ha        1 MOL      0.105796
    131 H57        11.2790   -2.3180    0.0920 ha        1 MOL      0.113197
    132 H58        11.8440   -0.8720   -3.9110 ha        1 MOL      0.113197
    133 H59        12.7930   -1.5750   -1.7040 ha        1 MOL      0.083529
    134 N12         6.0950    1.1130   -1.7690 n         1 MOL     -0.109052
    135 C45         6.2560    2.5730   -1.3510 c3        1 MOL      0.126583
    136 C46         5.7920    2.7810    0.1030 c         1 MOL      0.252953
    137 O20         6.3500    3.4310    0.9780 o         1 MOL     -0.510197
    138 C47         5.4420    3.4050   -2.3210 c3        1 MOL     -0.050521
    139 C48         5.4580    2.5110   -3.5720 c3        1 MOL     -0.109160
    140 C49         5.2740    1.0960   -2.9640 c3        1 MOL      0.010707
    141 H60         7.3230    2.7890   -1.3760 h1        1 MOL      0.049024
    142 H61         4.3890    3.4620   -2.0530 hc        1 MOL      0.049806
    143 H62         5.9420    4.3640   -2.4690 hc        1 MOL      0.049806
    144 H63         4.5970    2.6890   -4.2240 hc        1 MOL      0.044370
    145 H64         6.3750    2.5450   -4.1680 hc        1 MOL      0.044370
    146 H65         4.2360    0.8720   -2.6910 h1        1 MOL      0.051079
    147 H66         5.6090    0.3710   -3.7120 h1        1 MOL      0.051079
    148 N13         4.7420    2.0780    0.4810 n         1 MOL      0.018213
    149 C50         4.0930    2.1460    1.7490 c3        1 MOL     -0.299687
    150 C51         4.8750    1.5480    2.9420 c         1 MOL      0.516445
    151 O21         4.7490    1.9820    4.0620 o         1 MOL     -0.566468
    152 C52         2.6800    1.5340    1.7370 c3        1 MOL     -0.056085
    153 C53         1.7960    2.1030    0.5790 c3        1 MOL     -0.342244
    154 C54         0.3330    1.4950    0.6160 c         1 MOL      0.824841
    155 O22        -0.5660    2.0580   -0.0240 o         1 MOL     -0.773130
    156 O23         0.0850    0.4780    1.1880 o         1 MOL     -0.773130
    157 H67         4.5220    1.3300   -0.1590 hn        1 MOL      0.111659
    158 H68         3.9390    3.2090    1.9550 h1        1 MOL      0.159287
    159 H69         2.1810    1.7450    2.6810 hc        1 MOL      0.107146
    160 H70         2.8590    0.4740    1.5500 hc        1 MOL      0.107146
    161 H71         2.2870    1.8440   -0.3620 hc        1 MOL      0.121042
    162 H72         1.6380    3.1820    0.5980 hc        1 MOL      0.121042
    163 N14         5.7110    0.6150    2.6250 n         1 MOL     -0.032963
    164 C55         6.5750   -0.0030    3.5770 c3        1 MOL     -0.208668
    165 H73         6.4200   -1.0820    3.5610 h1        1 MOL      0.069528
    166 H74         7.6120    0.2180    3.3250 h1        1 MOL      0.069528
    167 H75         6.3530    0.3820    4.5730 h1        1 MOL      0.069528
    168 H76         5.8200    0.1870    1.7180 hn        1 MOL      0.140761
    169 Ca1        -2.2980    0.0680   -0.2040 Ca        1 MOL      1.751752
    170 O24        -1.9460   -0.0240    2.9750 oh        1 MOL     -0.849946
    171 H77        -1.0650   -0.0290    2.6150 ho        1 MOL      0.414018
    172 H78        -1.8410    0.3170    3.8680 ho        1 MOL      0.414018
    173 O25        -4.2760   -0.9430    1.6740 oh        1 MOL     -0.849946
    174 H79        -3.5800   -0.7820    2.3210 ho        1 MOL      0.414018
    175 H80        -5.0830   -0.7310    2.1360 ho        1 MOL      0.414018
@<TRIPOS>BOND
     1    1    2 1   
     2    1    4 1   
     3    1    5 1   
     4    1    6 1   
     5    2    3 2   
     6    2    7 1   
     7    7    8 1   
     8    7   15 1   
     9    8    9 1   
    10    8   11 1   
    11    8   16 1   
    12    9   10 2   
    13    9   19 1   
    14   11   12 1   
    15   11   17 1   
    16   11   18 1   
    17   12   13 1   
    18   12   14 1   
    19   19   20 1   
    20   19   24 1   
    21   20   21 1   
    22   20   23 1   
    23   20   25 1   
    24   21   22 2   
    25   21   29 1   
    26   23   26 1   
    27   23   27 1   
    28   23   28 1   
    29   29   30 1   
    30   29   37 1   
    31   30   31 1   
    32   30   33 1   
    33   30   38 1   
    34   31   32 2   
    35   31   41 1   
    36   33   34 1   
    37   33   39 1   
    38   33   40 1   
    39   34   35 1   
    40   34   36 1   
    41   41   42 1   
    42   41   45 1   
    43   42   43 1   
    44   42   46 1   
    45   42   47 1   
    46   43   44 2   
    47   43   48 1   
    48   48   49 1   
    49   48   56 1   
    50   49   50 1   
    51   49   52 1   
    52   49   57 1   
    53   50   51 2   
    54   50   62 1   
    55   52   53 1   
    56   52   58 1   
    57   52   59 1   
    58   53   54 1   
    59   53   55 2   
    60   54   60 1   
    61   54   61 1   
    62   62   63 1   
    63   62   66 1   
    64   63   64 1   
    65   63   67 1   
    66   63   68 1   
    67   64   65 2   
    68   64   69 1   
    69   69   70 1   
    70   69   76 1   
    71   70   71 1   
    72   70   73 1   
    73   70   77 1   
    74   71   72 2   
    75   71   83 1   
    76   73   74 1   
    77   73   75 1   
    78   73   78 1   
    79   74   80 1   
    80   74   81 1   
    81   74   82 1   
    82   75   79 1   
    83   83   84 1   
    84   83   91 1   
    85   84   85 1   
    86   84   87 1   
    87   84   92 1   
    88   85   86 2   
    89   85  102 1   
    90   87   88 1   
    91   87   89 1   
    92   87   93 1   
    93   88   90 1   
    94   88   94 1   
    95   88   95 1   
    96   89   96 1   
    97   89   97 1   
    98   89   98 1   
    99   90   99 1   
   100   90  100 1   
   101   90  101 1   
   102  102  103 1   
   103  102  110 1   
   104  103  104 1   
   105  103  106 1   
   106  103  111 1   
   107  104  105 2   
   108  104  114 1   
   109  106  107 1   
   110  106  112 1   
   111  106  113 1   
   112  107  108 1   
   113  107  109 1   
   114  114  115 1   
   115  114  125 1   
   116  115  116 1   
   117  115  118 1   
   118  115  126 1   
   119  116  117 2   
   120  116  134 1   
   121  118  119 1   
   122  118  127 1   
   123  118  128 1   
   124  119  120 ar  
   125  119  121 ar  
   126  120  122 ar  
   127  120  129 1   
   128  121  123 ar  
   129  121  130 1   
   130  122  124 ar  
   131  122  131 1   
   132  123  124 ar  
   133  123  132 1   
   134  124  133 1   
   135  134  135 1   
   136  134  140 1   
   137  135  136 1   
   138  135  138 1   
   139  135  141 1   
   140  136  137 2   
   141  136  148 1   
   142  138  139 1   
   143  138  142 1   
   144  138  143 1   
   145  139  140 1   
   146  139  144 1   
   147  139  145 1   
   148  140  146 1   
   149  140  147 1   
   150  148  149 1   
   151  148  157 1   
   152  149  150 1   
   153  149  152 1   
   154  149  158 1   
   155  150  151 2   
   156  150  163 1   
   157  152  153 1   
   158  152  159 1   
   159  152  160 1   
   160  153  154 1   
   161  153  161 1   
   162  153  162 1   
   163  154  155 1   
   164  154  156 1   
   165  163  164 1   
   166  163  168 1   
   167  164  165 1   
   168  164  166 1   
   169  164  167 1   
   170  170  171 1   
   171  170  172 1   
   172  173  174 1   
   173  173  175 1   
@<TRIPOS>SUBSTRUCTURE
     1 MOL         1 TEMP              0 ****  ****    0 ROOT
