@<TRIPOS>MOLECULE
MOL
  175   173     1     0     0
SMALL
resp


@<TRIPOS>ATOM
      1 C1         -1.2220    4.0010    5.8710 c3        1 MOL     -0.303935
      2 C2         -1.4380    3.7110    4.3960 c         1 MOL      0.757904
      3 O1         -1.0130    4.5650    3.6240 o         1 MOL     -0.582828
      4 H1         -0.8090    5.0040    5.9870 hc        1 MOL      0.062186
      5 H2         -2.1740    3.9380    6.3980 hc        1 MOL      0.062186
      6 H3         -0.5260    3.2720    6.2870 hc        1 MOL      0.062186
      7 N1         -2.0920    2.6340    4.0320 n         1 MOL     -0.616378
      8 C3         -2.4960    2.3320    2.6500 c3        1 MOL      0.058094
      9 C4         -3.1140    3.5610    1.8540 c         1 MOL      0.675718
     10 O2         -4.0150    4.2790    2.2770 o         1 MOL     -0.605973
     11 C5         -3.5400    1.2430    2.7160 c3        1 MOL     -0.136180
     12 C6         -4.2220    1.0090    1.3900 c         1 MOL      0.593939
     13 O3         -5.4660    0.7790    1.4730 o         1 MOL     -0.662683
     14 O4         -3.5930    0.9570    0.3620 o         1 MOL     -0.662683
     15 H4         -2.5120    2.0450    4.7290 hn        1 MOL      0.312196
     16 H5         -1.5720    2.0890    2.1310 h1        1 MOL      0.077649
     17 H6         -4.2650    1.5460    3.4690 hc        1 MOL      0.037432
     18 H7         -3.1070    0.3100    3.0630 hc        1 MOL      0.037432
     19 N2         -2.5820    3.8090    0.6690 n         1 MOL     -0.512736
     20 C7         -2.8820    5.0360   -0.1030 c3        1 MOL      0.315687
     21 C8         -3.8030    4.8630   -1.3260 c         1 MOL      0.510789
     22 O5         -4.0340    5.8060   -2.1110 o         1 MOL     -0.589499
     23 C9         -1.5650    5.7290   -0.3370 c3        1 MOL     -0.233566
     24 H8         -1.8770    3.1830    0.3000 hn        1 MOL      0.266676
     25 H9         -3.4350    5.7250    0.5350 h1        1 MOL      0.026426
     26 H10        -0.8910    5.1780   -0.9920 hc        1 MOL      0.052559
     27 H11        -1.8040    6.7050   -0.7500 hc        1 MOL      0.052559
     28 H12        -1.1010    5.8510    0.6500 hc        1 MOL      0.052559
     29 N3         -4.4010    3.7410   -1.4910 n         1 MOL     -0.676161
     30 C10        -5.3060    3.4060   -2.6600 c3        1 MOL      0.375244
     31 C11        -6.6220    2.6910   -2.2330 c         1 MOL      0.387348
     32 O6         -7.3870    2.4840   -3.2180 o         1 MOL     -0.546780
     33 C12        -4.4800    2.6670   -3.7910 c3        1 MOL     -0.381512
     34 C13        -3.4970    1.6800   -3.1180 c         1 MOL      0.790820
     35 O7         -2.4190    2.0770   -2.6110 o         1 MOL     -0.725271
     36 O8         -3.6710    0.4370   -3.0890 o         1 MOL     -0.725271
     37 H13        -3.9860    2.9440   -1.0430 hn        1 MOL      0.365967
     38 H14        -5.6360    4.3150   -3.1580 h1        1 MOL      0.048530
     39 H15        -3.8950    3.4170   -4.3090 hc        1 MOL      0.092213
     40 H16        -5.1570    2.1300   -4.4530 hc        1 MOL      0.092213
     41 N4         -6.8490    2.3200   -0.9710 n         1 MOL     -0.360408
     42 C14        -8.0990    1.6770   -0.6490 c3        1 MOL     -0.041117
     43 C15        -8.1990    0.1140   -0.8210 c         1 MOL      0.436070
     44 O9         -9.2570   -0.4990   -0.5640 o         1 MOL     -0.574396
     45 H17        -6.0580    2.1960   -0.3540 hn        1 MOL      0.270118
     46 H18        -8.8810    2.0300   -1.3280 h1        1 MOL      0.084310
     47 H19        -8.4700    1.9180    0.3520 h1        1 MOL      0.084310
     48 N5         -7.0530   -0.4730   -1.1530 n         1 MOL     -0.126600
     49 C16        -7.0350   -1.9360   -1.2370 c3        1 MOL     -0.168943
     50 C17        -6.6650   -2.7500    0.0060 c         1 MOL      0.469734
     51 O10        -6.8500   -3.9530   -0.0680 o         1 MOL     -0.558658
     52 C18        -6.0720   -2.1900   -2.4160 c3        1 MOL     -0.072980
     53 C19        -4.6740   -2.5510   -1.9690 c         1 MOL      0.605612
     54 N6         -4.2080   -3.7000   -2.3850 n         1 MOL     -0.738562
     55 O11        -4.0290   -1.8630   -1.1550 o         1 MOL     -0.641401
     56 H20        -6.1930    0.0350   -0.9940 hn        1 MOL      0.144094
     57 H21        -8.0590   -2.1800   -1.5120 h1        1 MOL      0.157586
     58 H22        -6.0030   -1.3120   -3.0490 hc        1 MOL      0.039150
     59 H23        -6.4450   -3.0130   -3.0380 hc        1 MOL      0.039150
     60 H24        -4.7760   -4.2690   -2.9860 hn        1 MOL      0.341744
     61 H25        -3.5330   -4.1700   -1.8040 hn        1 MOL      0.341744
     62 N7         -6.2970   -2.1640    1.1640 n         1 MOL     -0.092566
     63 C20        -6.1190   -2.8700    2.4800 c3        1 MOL     -0.323589
     64 C21        -4.8580   -3.6930    2.6510 c         1 MOL      0.664755
     65 O12        -4.6510   -4.3680    3.6270 o         1 MOL     -0.575079
     66 H26        -6.4360   -1.1620    1.2020 hn        1 MOL      0.218317
     67 H27        -6.9550   -3.5580    2.6170 h1        1 MOL      0.131386
     68 H28        -6.0700   -2.0990    3.2440 h1        1 MOL      0.131386
     69 N8         -3.9600   -3.5970    1.6300 n         1 MOL     -0.419266
     70 C22        -2.5900   -4.1430    1.5920 c3        1 MOL     -0.035763
     71 C23        -1.6040   -3.0490    1.2190 c         1 MOL      0.647140
     72 O13        -2.0160   -2.0150    0.6390 o         1 MOL     -0.662008
     73 C24        -2.5400   -5.2650    0.5740 c3        1 MOL      0.352393
     74 C25        -3.7420   -6.1850    0.3800 c3        1 MOL     -0.368411
     75 O14        -2.1810   -4.9210   -0.7610 oh        1 MOL     -0.675769
     76 H29        -4.1710   -2.9870    0.8520 hn        1 MOL      0.304897
     77 H30        -2.2140   -4.6190    2.5010 h1        1 MOL      0.078390
     78 H31        -1.7260   -5.8940    0.9310 h1        1 MOL     -0.003706
     79 H32        -2.4280   -5.6880   -1.2900 ho        1 MOL      0.425962
     80 H33        -4.1800   -6.4270    1.3420 hc        1 MOL      0.098373
     81 H34        -4.3130   -5.7020   -0.4050 hc        1 MOL      0.098373
     82 H35        -3.3420   -7.1210   -0.0270 hc        1 MOL      0.098373
     83 N9         -0.3530   -3.2210    1.5550 n         1 MOL     -0.277154
     84 C26         0.7830   -2.2770    1.3410 c3        1 MOL     -0.263948
     85 C27         1.7400   -2.8450    0.3110 c         1 MOL      0.487296
     86 O15         2.2650   -3.9970    0.4850 o         1 MOL     -0.571856
     87 C28         1.4850   -1.9530    2.7270 c3        1 MOL      0.472677
     88 C29         2.2490   -3.1130    3.4290 c3        1 MOL      0.045819
     89 C30         0.4120   -1.4830    3.7580 c3        1 MOL     -0.427343
     90 C31         2.8800   -2.7060    4.7660 c3        1 MOL     -0.018443
     91 H36        -0.0670   -4.0510    2.0610 hn        1 MOL      0.208978
     92 H37         0.2980   -1.3950    0.9130 h1        1 MOL      0.102700
     93 H38         2.2740   -1.2270    2.5510 hc        1 MOL     -0.163975
     94 H39         2.9890   -3.5660    2.7780 hc        1 MOL     -0.021537
     95 H40         1.5150   -3.8740    3.7030 hc        1 MOL     -0.021537
     96 H41         0.8000   -1.0200    4.6620 hc        1 MOL      0.094461
     97 H42        -0.1740   -0.7250    3.2420 hc        1 MOL      0.094461
     98 H43        -0.3030   -2.2800    3.9210 hc        1 MOL      0.094461
     99 H44         3.4970   -3.5160    5.1710 hc        1 MOL     -0.008709
    100 H45         3.4940   -1.8090    4.6550 hc        1 MOL     -0.008709
    101 H46         2.0830   -2.5680    5.4920 hc        1 MOL     -0.008709
    102 N10         2.2050   -1.9750   -0.5980 n         1 MOL     -0.391097
    103 C32         3.4200   -2.0790   -1.3650 c3        1 MOL      0.391683
    104 C33         4.5850   -1.4560   -0.5740 c         1 MOL      0.392485
    105 O16         4.4740   -0.8870    0.4990 o         1 MOL     -0.372866
    106 C34         3.2900   -1.4990   -2.7860 c3        1 MOL     -0.327338
    107 C35         4.2610   -2.2050   -3.7440 c         1 MOL      0.741576
    108 O17         5.0540   -3.0350   -3.2760 o         1 MOL     -0.712622
    109 O18         4.2620   -1.9130   -4.9830 o         1 MOL     -0.712622
    110 H47         1.7970   -1.0470   -0.6140 hn        1 MOL      0.252041
    111 H48         3.5570   -3.1570   -1.3760 h1        1 MOL      0.018210
    112 H49         3.5000   -0.4390   -2.6630 hc        1 MOL      0.055008
    113 H50         2.3190   -1.7310   -3.2100 hc        1 MOL      0.055008
    114 N11         5.8200   -1.6690   -1.0510 n         1 MOL     -0.679105
    115 C36         7.0650   -1.1000   -0.5170 c3        1 MOL      0.596711
    116 C37         7.0850    0.4420   -0.3240 c         1 MOL      0.297298
    117 O19         7.5090    0.8440    0.7440 o         1 MOL     -0.534341
    118 C38         8.1590   -1.6530   -1.4220 c3        1 MOL     -0.239947
    119 C39         9.4880   -1.1720   -0.9210 ca        1 MOL      0.093857
    120 C40        10.1940   -1.8650    0.0400 ca        1 MOL     -0.126487
    121 C41        10.0560   -0.0140   -1.5440 ca        1 MOL     -0.126487
    122 C42        11.4460   -1.4150    0.4720 ca        1 MOL     -0.160119
    123 C43        11.3560    0.3960   -1.1440 ca        1 MOL     -0.160119
    124 C44        12.0240   -0.2620   -0.1110 ca        1 MOL     -0.090066
    125 H51         5.8830   -2.0980   -1.9600 hn        1 MOL      0.302290
    126 H52         7.3050   -1.4890    0.4800 h1        1 MOL     -0.033260
    127 H53         8.0730   -1.4740   -2.4900 hc        1 MOL      0.074166
    128 H54         8.1110   -2.7420   -1.3200 hc        1 MOL      0.074166
    129 H55         9.7860   -2.7200    0.5570 ha        1 MOL      0.098965
    130 H56         9.4830    0.3920   -2.3740 ha        1 MOL      0.098965
    131 H57        11.9170   -1.7850    1.3710 ha        1 MOL      0.114673
    132 H58        11.8820    1.2640   -1.5040 ha        1 MOL      0.114673
    133 H59        12.9280    0.1050    0.3480 ha        1 MOL      0.095620
    134 N12         6.6150    1.2460   -1.2610 n         1 MOL     -0.079149
    135 C45         6.5230    2.6800   -1.0850 c3        1 MOL     -0.011204
    136 C46         5.5220    3.0920    0.0440 c         1 MOL      0.379222
    137 O20         5.4810    4.1800    0.4870 o         1 MOL     -0.522520
    138 C47         6.0800    3.2780   -2.3610 c3        1 MOL     -0.169423
    139 C48         5.3820    2.0930   -3.0540 c3        1 MOL      0.091698
    140 C49         6.1850    0.9600   -2.6510 c3        1 MOL     -0.057701
    141 H60         7.4640    3.1600   -0.7920 h1        1 MOL      0.075981
    142 H61         5.3170    4.0460   -2.2210 hc        1 MOL      0.061133
    143 H62         6.8820    3.5910   -3.0370 hc        1 MOL      0.061133
    144 H63         4.3530    2.0350   -2.6780 hc        1 MOL      0.004392
    145 H64         5.3250    2.1950   -4.1380 hc        1 MOL      0.004392
    146 H65         5.6230    0.0390   -2.7770 h1        1 MOL      0.048520
    147 H66         7.1200    0.8500   -3.1940 h1        1 MOL      0.048520
    148 N13         4.6390    2.1730    0.4400 n         1 MOL     -0.043439
    149 C50         3.6930    2.3520    1.5530 c3        1 MOL     -0.026136
    150 C51         4.1770    1.7710    2.8430 c         1 MOL      0.421693
    151 O21         3.9690    2.4910    3.7830 o         1 MOL     -0.567389
    152 C52         2.3380    1.7280    1.1580 c3        1 MOL     -0.046503
    153 C53         1.6120    2.3440   -0.0160 c3        1 MOL     -0.245884
    154 C54         0.4790    1.4480   -0.4220 c         1 MOL      0.858240
    155 O22         0.7220    0.4940   -1.2140 o         1 MOL     -0.792588
    156 O23        -0.6340    1.5390    0.0310 o         1 MOL     -0.792588
    157 H67         4.6970    1.2460    0.0510 hn        1 MOL      0.117518
    158 H68         3.5390    3.4300    1.6060 h1        1 MOL      0.095474
    159 H69         1.6620    1.7330    2.0130 hc        1 MOL      0.055233
    160 H70         2.4900    0.6850    0.8900 hc        1 MOL      0.055233
    161 H71         2.2220    2.5260   -0.9010 hc        1 MOL      0.065128
    162 H72         1.2560    3.3240    0.3220 hc        1 MOL      0.065128
    163 N14         4.9100    0.6850    2.8450 n         1 MOL      0.054445
    164 C55         5.7410    0.0710    3.9160 c3        1 MOL     -0.277690
    165 H73         6.6140    0.6970    4.1010 h1        1 MOL      0.101610
    166 H74         5.1530   -0.0110    4.8310 h1        1 MOL      0.101610
    167 H75         6.0650   -0.9200    3.6010 h1        1 MOL      0.101610
    168 H76         5.1270    0.3800    1.9080 hn        1 MOL     -0.013390
    169 Ca1        -1.9100   -0.2340   -1.1900 Ca        1 MOL      1.811148
    170 O24        -0.6510   -0.0540   -3.4830 oh        1 MOL     -0.868541
    171 H77         0.3060   -0.1320   -3.4950 ho        1 MOL      0.416144
    172 H78        -0.8630    0.3950   -4.2970 ho        1 MOL      0.416144
    173 O25        -1.1710   -2.6230   -1.9410 oh        1 MOL     -0.868541
    174 H79        -1.2400   -3.5270   -1.6200 ho        1 MOL      0.416144
    175 H80        -1.2160   -2.7100   -2.8880 ho        1 MOL      0.416144
@<TRIPOS>BOND
     1    1    2 1   
     2    1    4 1   
     3    1    5 1   
     4    1    6 1   
     5    2    3 2   
     6    2    7 1   
     7    7    8 1   
     8    7   15 1   
     9    8    9 1   
    10    8   11 1   
    11    8   16 1   
    12    9   10 2   
    13    9   19 1   
    14   11   12 1   
    15   11   17 1   
    16   11   18 1   
    17   12   13 1   
    18   12   14 1   
    19   19   20 1   
    20   19   24 1   
    21   20   21 1   
    22   20   23 1   
    23   20   25 1   
    24   21   22 2   
    25   21   29 1   
    26   23   26 1   
    27   23   27 1   
    28   23   28 1   
    29   29   30 1   
    30   29   37 1   
    31   30   31 1   
    32   30   33 1   
    33   30   38 1   
    34   31   32 2   
    35   31   41 1   
    36   33   34 1   
    37   33   39 1   
    38   33   40 1   
    39   34   35 1   
    40   34   36 1   
    41   41   42 1   
    42   41   45 1   
    43   42   43 1   
    44   42   46 1   
    45   42   47 1   
    46   43   44 2   
    47   43   48 1   
    48   48   49 1   
    49   48   56 1   
    50   49   50 1   
    51   49   52 1   
    52   49   57 1   
    53   50   51 2   
    54   50   62 1   
    55   52   53 1   
    56   52   58 1   
    57   52   59 1   
    58   53   54 1   
    59   53   55 2   
    60   54   60 1   
    61   54   61 1   
    62   62   63 1   
    63   62   66 1   
    64   63   64 1   
    65   63   67 1   
    66   63   68 1   
    67   64   65 2   
    68   64   69 1   
    69   69   70 1   
    70   69   76 1   
    71   70   71 1   
    72   70   73 1   
    73   70   77 1   
    74   71   72 2   
    75   71   83 1   
    76   73   74 1   
    77   73   75 1   
    78   73   78 1   
    79   74   80 1   
    80   74   81 1   
    81   74   82 1   
    82   75   79 1   
    83   83   84 1   
    84   83   91 1   
    85   84   85 1   
    86   84   87 1   
    87   84   92 1   
    88   85   86 2   
    89   85  102 1   
    90   87   88 1   
    91   87   89 1   
    92   87   93 1   
    93   88   90 1   
    94   88   94 1   
    95   88   95 1   
    96   89   96 1   
    97   89   97 1   
    98   89   98 1   
    99   90   99 1   
   100   90  100 1   
   101   90  101 1   
   102  102  103 1   
   103  102  110 1   
   104  103  104 1   
   105  103  106 1   
   106  103  111 1   
   107  104  105 2   
   108  104  114 1   
   109  106  107 1   
   110  106  112 1   
   111  106  113 1   
   112  107  108 1   
   113  107  109 1   
   114  114  115 1   
   115  114  125 1   
   116  115  116 1   
   117  115  118 1   
   118  115  126 1   
   119  116  117 2   
   120  116  134 1   
   121  118  119 1   
   122  118  127 1   
   123  118  128 1   
   124  119  120 ar  
   125  119  121 ar  
   126  120  122 ar  
   127  120  129 1   
   128  121  123 ar  
   129  121  130 1   
   130  122  124 ar  
   131  122  131 1   
   132  123  124 ar  
   133  123  132 1   
   134  124  133 1   
   135  134  135 1   
   136  134  140 1   
   137  135  136 1   
   138  135  138 1   
   139  135  141 1   
   140  136  137 2   
   141  136  148 1   
   142  138  139 1   
   143  138  142 1   
   144  138  143 1   
   145  139  140 1   
   146  139  144 1   
   147  139  145 1   
   148  140  146 1   
   149  140  147 1   
   150  148  149 1   
   151  148  157 1   
   152  149  150 1   
   153  149  152 1   
   154  149  158 1   
   155  150  151 2   
   156  150  163 1   
   157  152  153 1   
   158  152  159 1   
   159  152  160 1   
   160  153  154 1   
   161  153  161 1   
   162  153  162 1   
   163  154  155 1   
   164  154  156 1   
   165  163  164 1   
   166  163  168 1   
   167  164  165 1   
   168  164  166 1   
   169  164  167 1   
   170  170  171 1   
   171  170  172 1   
   172  173  174 1   
   173  173  175 1   
@<TRIPOS>SUBSTRUCTURE
     1 MOL         1 TEMP              0 ****  ****    0 ROOT
