@<TRIPOS>MOLECULE
MOL
  179   176     1     0     0
SMALL
resp


@<TRIPOS>ATOM
      1 C1          1.3360    3.3340    6.8430 c3        1 MOL     -0.237161
      2 C2          1.4230    2.7960    5.3680 c         1 MOL      0.687870
      3 O1          2.4790    2.3470    4.8810 o         1 MOL     -0.547660
      4 H1          0.5550    2.7950    7.3800 hc        1 MOL      0.060234
      5 H2          2.2920    3.1800    7.3430 hc        1 MOL      0.060234
      6 H3          1.0990    4.3980    6.8290 hc        1 MOL      0.060234
      7 N1          0.2850    2.8360    4.6420 n         1 MOL     -0.655058
      8 C3          0.1880    2.6090    3.1830 c3        1 MOL      0.024437
      9 C4          0.7700    3.8300    2.4660 c         1 MOL      0.698184
     10 O2          0.9250    4.9010    3.0710 o         1 MOL     -0.547119
     11 C5         -1.2960    2.2650    2.8500 c3        1 MOL     -0.132296
     12 C6         -1.5460    1.9000    1.3640 c         1 MOL      0.641555
     13 O3         -2.6730    1.6140    0.9210 o         1 MOL     -0.677309
     14 O4         -0.6570    1.9740    0.4570 o         1 MOL     -0.677309
     15 H4         -0.5440    3.0660    5.1700 hn        1 MOL      0.327923
     16 H5          0.8810    1.7880    3.0600 h1        1 MOL      0.086118
     17 H6         -1.9300    3.1030    3.1430 hc        1 MOL      0.063282
     18 H7         -1.5580    1.3630    3.4040 hc        1 MOL      0.063282
     19 N2          1.1290    3.6920    1.1690 n         1 MOL     -0.474057
     20 C7          1.6200    4.7620    0.2780 c3        1 MOL     -0.305536
     21 C8          0.5020    5.4900   -0.4690 c         1 MOL      0.674262
     22 O5          0.6370    6.5680   -0.8900 o         1 MOL     -0.581243
     23 C9          2.5620    4.0770   -0.7420 c3        1 MOL      0.274377
     24 C10         3.5110    5.0410   -1.5890 c3        1 MOL     -0.365168
     25 C11         4.6360    4.3360   -2.3570 c3        1 MOL      0.174557
     26 C12         5.4340    5.4700   -3.0110 c3        1 MOL     -0.015895
     27 N3          6.4940    4.8990   -3.9510 n4        1 MOL     -0.300955
     28 H8          0.9110    2.7790    0.8130 hn        1 MOL      0.206910
     29 H9          2.2320    5.4010    0.9130 h1        1 MOL      0.164201
     30 H10         1.9130    3.4570   -1.3520 hc        1 MOL      0.038919
     31 H11         3.2520    3.4960   -0.1390 hc        1 MOL      0.038919
     32 H12         4.0430    5.6430   -0.8450 hc        1 MOL      0.097571
     33 H13         2.9400    5.6490   -2.2890 hc        1 MOL      0.097571
     34 H14         4.1540    3.8360   -3.1990 hc        1 MOL     -0.008159
     35 H15         5.2000    3.5990   -1.7750 hc        1 MOL     -0.008159
     36 H16         5.9510    5.9880   -2.2020 hx        1 MOL      0.098249
     37 H17         4.7800    6.1540   -3.5550 hx        1 MOL      0.098249
     38 H18         5.9810    4.5310   -4.7300 hn        1 MOL      0.305062
     39 H19         7.1550    5.5340   -4.3710 hn        1 MOL      0.305062
     40 H20         7.0200    4.1450   -3.5470 hn        1 MOL      0.305062
     41 N4         -0.6880    4.8840   -0.5160 n         1 MOL     -0.428574
     42 C13        -1.9140    5.5600   -1.0040 c3        1 MOL      0.117114
     43 C14        -3.0880    5.4710   -0.1150 c         1 MOL      0.448621
     44 O6         -3.7320    6.4810    0.0860 o         1 MOL     -0.550153
     45 C15        -2.2840    5.2690   -2.4650 c3        1 MOL     -0.423168
     46 C16        -2.2860    3.7480   -2.7960 c         1 MOL      0.846902
     47 O7         -2.2600    2.8700   -1.8820 o         1 MOL     -0.708136
     48 O8         -2.2690    3.4520   -3.9840 o         1 MOL     -0.708136
     49 H21        -0.7020    3.8730   -0.4020 hn        1 MOL      0.302981
     50 H22        -1.6600    6.6190   -1.0830 h1        1 MOL      0.104622
     51 H23        -1.6150    5.8440   -3.1170 hc        1 MOL      0.121787
     52 H24        -3.2950    5.6190   -2.6960 hc        1 MOL      0.121787
     53 N5         -3.2320    4.3180    0.5860 n         1 MOL     -0.058194
     54 C17        -4.3040    4.0550    1.5000 c3        1 MOL     -0.192508
     55 C18        -5.3460    3.0380    1.0310 c         1 MOL      0.559010
     56 O9         -6.3730    2.7450    1.6730 o         1 MOL     -0.606805
     57 H25        -2.6230    3.5360    0.3850 hn        1 MOL     -0.073658
     58 H26        -4.7670    5.0040    1.7700 h1        1 MOL      0.118029
     59 H27        -3.8430    3.6770    2.4160 h1        1 MOL      0.118029
     60 N6         -5.1670    2.4200   -0.1890 n         1 MOL     -0.299416
     61 C19        -6.2240    1.5380   -0.7940 c3        1 MOL     -0.094141
     62 C20        -6.8750    0.2740   -0.0120 c         1 MOL      0.439372
     63 O10        -7.6950   -0.4080   -0.6790 o         1 MOL     -0.516668
     64 C21        -5.8250    1.1720   -2.2800 c3        1 MOL     -0.018906
     65 C22        -5.0010   -0.1390   -2.3130 c         1 MOL      0.463410
     66 N7         -5.2790   -1.1300   -3.1560 n         1 MOL     -0.789101
     67 O11        -4.0100   -0.2730   -1.5890 o         1 MOL     -0.388886
     68 H28        -4.2670    2.5840   -0.6200 hn        1 MOL      0.187715
     69 H29        -7.1060    2.1700   -0.7810 h1        1 MOL      0.122038
     70 H30        -5.2020    1.9380   -2.7550 hc        1 MOL      0.053059
     71 H31        -6.6950    1.1260   -2.9390 hc        1 MOL      0.053059
     72 H32        -6.0290   -1.0640   -3.8190 hn        1 MOL      0.382869
     73 H33        -4.6090   -1.8870   -3.2060 hn        1 MOL      0.382869
     74 N8         -6.4640    0.0260    1.2290 n         1 MOL     -0.105254
     75 C23        -6.8110   -1.2150    1.8100 c3        1 MOL     -0.514519
     76 C24        -5.7210   -2.2420    1.8310 c         1 MOL      0.678100
     77 O12        -5.8830   -3.2510    2.5580 o         1 MOL     -0.570641
     78 H34        -5.8860    0.6290    1.7960 hn        1 MOL      0.311605
     79 H35        -7.6860   -1.6920    1.3770 h1        1 MOL      0.199784
     80 H36        -6.9680   -0.8730    2.8330 h1        1 MOL      0.199784
     81 N9         -4.6070   -2.0610    1.1050 n         1 MOL     -0.447991
     82 C25        -3.5210   -3.0860    0.9350 c3        1 MOL      0.306663
     83 C26        -2.1480   -2.4290    0.9090 c         1 MOL      0.433251
     84 O13        -2.0870   -1.3100    0.4640 o         1 MOL     -0.355236
     85 C27        -3.7280   -3.7400   -0.4760 c3        1 MOL     -0.035193
     86 C28        -4.9870   -4.5480   -0.6810 ca        1 MOL     -0.065188
     87 C29        -5.0570   -5.8880   -0.4280 ca        1 MOL     -0.070306
     88 C30        -6.0840   -3.7660   -1.1330 ca        1 MOL     -0.070306
     89 C31        -6.2850   -6.5760   -0.6850 ca        1 MOL     -0.308422
     90 C32        -7.3640   -4.4520   -1.3420 ca        1 MOL     -0.308422
     91 C33        -7.4070   -5.8820   -1.1480 ca        1 MOL      0.351100
     92 O14        -8.5770   -6.5850   -1.3850 oh        1 MOL     -0.491884
     93 H37        -4.5230   -1.2710    0.4880 hn        1 MOL      0.061772
     94 H38        -3.5930   -3.7650    1.7810 h1        1 MOL      0.016061
     95 H39        -2.8620   -4.3310   -0.7830 hc        1 MOL     -0.001497
     96 H40        -3.8390   -2.9180   -1.1930 hc        1 MOL     -0.001497
     97 H41        -4.1930   -6.4370   -0.0860 ha        1 MOL      0.118420
     98 H42        -5.9690   -2.6940   -1.2510 ha        1 MOL      0.118420
     99 H43        -6.4280   -7.6300   -0.5430 ha        1 MOL      0.171022
    100 H44        -8.2210   -3.8380   -1.5660 ha        1 MOL      0.171022
    101 H45        -9.1900   -5.9140   -1.6970 ho        1 MOL      0.359755
    102 N10        -1.1660   -3.0910    1.4660 n         1 MOL     -0.604119
    103 C34         0.2830   -2.7370    1.3230 c3        1 MOL      0.213223
    104 C35         1.0850   -3.8490    0.6990 c         1 MOL      0.519488
    105 O15         0.8900   -5.0150    0.9690 o         1 MOL     -0.541061
    106 C36         0.8640   -2.1760    2.5960 c3        1 MOL      0.289576
    107 C37         0.8860   -3.0760    3.8830 c3        1 MOL     -0.181321
    108 C38         0.1250   -0.8010    2.8690 c3        1 MOL     -0.466159
    109 C39         2.1720   -3.9500    3.9600 c3        1 MOL      0.006342
    110 H46        -1.3380   -4.0380    1.8010 hn        1 MOL      0.312862
    111 H47         0.3640   -1.9220    0.6090 h1        1 MOL     -0.061012
    112 H48         1.9160   -1.9680    2.4030 hc        1 MOL     -0.039152
    113 H49         0.0800   -3.8020    3.8900 hc        1 MOL      0.053537
    114 H50         0.9190   -2.5720    4.8480 hc        1 MOL      0.053537
    115 H51         0.7320   -0.3560    3.6610 hc        1 MOL      0.119791
    116 H52         0.0670   -0.2610    1.9250 hc        1 MOL      0.119791
    117 H53        -0.9140   -0.9800    3.1260 hc        1 MOL      0.119791
    118 H54         2.4380   -4.3570    2.9880 hc        1 MOL     -0.001930
    119 H55         2.9800   -3.3300    4.3510 hc        1 MOL     -0.001930
    120 H56         2.0600   -4.8510    4.5690 hc        1 MOL     -0.001930
    121 N11         1.8930   -3.5450   -0.3390 n         1 MOL     -0.459747
    122 C40         2.9830   -4.4650   -0.7800 c3        1 MOL      0.052480
    123 C41         4.3040   -4.0660   -0.0720 c         1 MOL      0.489795
    124 O16         4.4300   -3.0000    0.4660 o         1 MOL     -0.459336
    125 C42         2.9310   -4.3770   -2.3630 c3        1 MOL     -0.073482
    126 O17         3.7000   -3.2450   -2.6920 oh        1 MOL     -0.535179
    127 H57         2.0360   -2.5610   -0.5260 hn        1 MOL      0.357430
    128 H58         2.6720   -5.4810   -0.5540 h1        1 MOL      0.076823
    129 H59         1.9050   -4.2030   -2.6960 h1        1 MOL      0.093416
    130 H60         3.3900   -5.2540   -2.8100 h1        1 MOL      0.093416
    131 H61         3.4630   -2.9200   -3.5550 ho        1 MOL      0.410507
    132 N12         5.3030   -4.8900   -0.3190 n         1 MOL     -0.380462
    133 C43         6.6550   -4.7060    0.2240 c3        1 MOL      0.109540
    134 C44         7.3530   -3.3980   -0.1790 c         1 MOL      0.463001
    135 O18         7.8660   -2.7070    0.6560 o         1 MOL     -0.504858
    136 C45         7.5570   -5.9500   -0.0340 c3        1 MOL     -0.445506
    137 H62         5.0060   -5.8330   -0.5540 hn        1 MOL      0.267857
    138 H63         6.5710   -4.7190    1.3130 h1        1 MOL      0.088952
    139 H64         7.8590   -5.9530   -1.0790 hc        1 MOL      0.137255
    140 H65         8.4780   -5.8510    0.5410 hc        1 MOL      0.137255
    141 H66         7.0270   -6.8520    0.2970 hc        1 MOL      0.137255
    142 N13         7.2580   -2.8870   -1.4220 n         1 MOL     -0.324765
    143 C46         7.8940   -1.5890   -1.8330 c3        1 MOL      0.057146
    144 C47         7.2000   -0.4760   -1.0730 c         1 MOL      0.380356
    145 O19         7.9140    0.4520   -0.6390 o         1 MOL     -0.525572
    146 C48         7.8540   -1.4130   -3.3650 c3        1 MOL     -0.317574
    147 H67         6.7200   -3.4480   -2.0670 hn        1 MOL      0.215821
    148 H68         8.9490   -1.6580   -1.5690 h1        1 MOL      0.117722
    149 H69         8.4040   -2.2340   -3.8280 hc        1 MOL      0.091158
    150 H70         6.8620   -1.3590   -3.7990 hc        1 MOL      0.091158
    151 H71         8.3100   -0.4280   -3.5050 hc        1 MOL      0.091158
    152 N14         5.9190   -0.5710   -0.7660 n         1 MOL      0.011779
    153 C49         5.0740    0.4670   -0.0960 c3        1 MOL     -0.489781
    154 C50         5.3680    0.3480    1.3800 c         1 MOL      0.530374
    155 O20         5.3510    1.3840    2.1290 o         1 MOL     -0.548018
    156 C51         3.5430    0.1650   -0.3440 c3        1 MOL      0.009622
    157 C52         3.1580    0.2890   -1.7940 c3        1 MOL     -0.022372
    158 C53         1.6480    0.2050   -1.8830 c         1 MOL      0.699019
    159 O21         1.0110   -0.6850   -1.2610 o         1 MOL     -0.726001
    160 O22         0.9720    1.0600   -2.5090 o         1 MOL     -0.726001
    161 H72         5.3690   -1.3440   -1.1020 hn        1 MOL      0.130515
    162 H73         5.4720    1.4320   -0.4270 h1        1 MOL      0.198340
    163 H74         2.9660    0.8440    0.2910 hc        1 MOL      0.047419
    164 H75         3.2520   -0.8330   -0.0260 hc        1 MOL      0.047419
    165 H76         3.5270   -0.5460   -2.3830 hc        1 MOL     -0.033965
    166 H77         3.5160    1.2500   -2.1620 hc        1 MOL     -0.033965
    167 N15         5.5990   -0.8160    1.9820 n         1 MOL     -0.057190
    168 C54         6.0900   -1.1190    3.3170 c3        1 MOL     -0.266708
    169 H78         7.1260   -0.7910    3.4060 h1        1 MOL      0.110183
    170 H79         5.4800   -0.6000    4.0560 h1        1 MOL      0.110183
    171 H80         6.0340   -2.1950    3.4910 h1        1 MOL      0.110183
    172 H81         5.5300   -1.6060    1.3620 hn        1 MOL      0.121244
    173 Ca1        -1.3870    0.4500   -1.3630 Ca        1 MOL      1.678169
    174 O23        -2.1310    0.8670   -3.8660 oh        1 MOL     -0.849210
    175 H82        -2.2180    1.8200   -3.9560 ho        1 MOL      0.399791
    176 H83        -2.5400    0.5170   -4.6520 ho        1 MOL      0.399791
    177 O24        -1.2330   -1.9670   -2.6590 oh        1 MOL     -0.849210
    178 H84        -1.8140   -2.4700   -3.2350 ho        1 MOL      0.399791
    179 H85        -0.5940   -2.6010   -2.3430 ho        1 MOL      0.399791
@<TRIPOS>BOND
     1    1    2 1   
     2    1    4 1   
     3    1    5 1   
     4    1    6 1   
     5    2    3 2   
     6    2    7 1   
     7    7    8 1   
     8    7   15 1   
     9    8    9 1   
    10    8   11 1   
    11    8   16 1   
    12    9   10 2   
    13    9   19 1   
    14   11   12 1   
    15   11   17 1   
    16   11   18 1   
    17   12   13 1   
    18   12   14 1   
    19   19   20 1   
    20   19   28 1   
    21   20   21 1   
    22   20   23 1   
    23   20   29 1   
    24   21   22 2   
    25   21   41 1   
    26   23   24 1   
    27   23   30 1   
    28   23   31 1   
    29   24   25 1   
    30   24   32 1   
    31   24   33 1   
    32   25   26 1   
    33   25   34 1   
    34   25   35 1   
    35   26   27 1   
    36   26   36 1   
    37   26   37 1   
    38   27   38 1   
    39   27   39 1   
    40   27   40 1   
    41   41   42 1   
    42   41   49 1   
    43   42   43 1   
    44   42   45 1   
    45   42   50 1   
    46   43   44 2   
    47   43   53 1   
    48   45   46 1   
    49   45   51 1   
    50   45   52 1   
    51   46   47 1   
    52   46   48 1   
    53   53   54 1   
    54   53   57 1   
    55   54   55 1   
    56   54   58 1   
    57   54   59 1   
    58   55   56 2   
    59   55   60 1   
    60   60   61 1   
    61   60   68 1   
    62   61   62 1   
    63   61   64 1   
    64   61   69 1   
    65   62   63 2   
    66   62   74 1   
    67   64   65 1   
    68   64   70 1   
    69   64   71 1   
    70   65   66 1   
    71   65   67 2   
    72   66   72 1   
    73   66   73 1   
    74   74   75 1   
    75   74   78 1   
    76   75   76 1   
    77   75   79 1   
    78   75   80 1   
    79   76   77 2   
    80   76   81 1   
    81   81   82 1   
    82   81   93 1   
    83   82   83 1   
    84   82   85 1   
    85   82   94 1   
    86   83   84 2   
    87   83  102 1   
    88   85   86 1   
    89   85   95 1   
    90   85   96 1   
    91   86   87 ar  
    92   86   88 ar  
    93   87   89 ar  
    94   87   97 1   
    95   88   90 ar  
    96   88   98 1   
    97   89   91 ar  
    98   89   99 1   
    99   90   91 ar  
   100   90  100 1   
   101   91   92 1   
   102   92  101 1   
   103  102  103 1   
   104  102  110 1   
   105  103  104 1   
   106  103  106 1   
   107  103  111 1   
   108  104  105 2   
   109  104  121 1   
   110  106  107 1   
   111  106  108 1   
   112  106  112 1   
   113  107  109 1   
   114  107  113 1   
   115  107  114 1   
   116  108  115 1   
   117  108  116 1   
   118  108  117 1   
   119  109  118 1   
   120  109  119 1   
   121  109  120 1   
   122  121  122 1   
   123  121  127 1   
   124  122  123 1   
   125  122  125 1   
   126  122  128 1   
   127  123  124 2   
   128  123  132 1   
   129  125  126 1   
   130  125  129 1   
   131  125  130 1   
   132  126  131 1   
   133  132  133 1   
   134  132  137 1   
   135  133  134 1   
   136  133  136 1   
   137  133  138 1   
   138  134  135 2   
   139  134  142 1   
   140  136  139 1   
   141  136  140 1   
   142  136  141 1   
   143  142  143 1   
   144  142  147 1   
   145  143  144 1   
   146  143  146 1   
   147  143  148 1   
   148  144  145 2   
   149  144  152 1   
   150  146  149 1   
   151  146  150 1   
   152  146  151 1   
   153  152  153 1   
   154  152  161 1   
   155  153  154 1   
   156  153  156 1   
   157  153  162 1   
   158  154  155 2   
   159  154  167 1   
   160  156  157 1   
   161  156  163 1   
   162  156  164 1   
   163  157  158 1   
   164  157  165 1   
   165  157  166 1   
   166  158  159 1   
   167  158  160 1   
   168  167  168 1   
   169  167  172 1   
   170  168  169 1   
   171  168  170 1   
   172  168  171 1   
   173  174  175 1   
   174  174  176 1   
   175  177  178 1   
   176  177  179 1   
@<TRIPOS>SUBSTRUCTURE
     1 MOL         1 TEMP              0 ****  ****    0 ROOT
