@<TRIPOS>MOLECULE
MOL
  183   181     1     0     0
SMALL
resp


@<TRIPOS>ATOM
      1 C1         -0.0400    1.3390    6.0190 c3        1 MOL     -0.372323
      2 C2         -0.6970    1.5810    4.6500 c         1 MOL      0.751296
      3 O1         -0.2160    2.3880    3.8780 o         1 MOL     -0.579578
      4 H1          0.9830    0.9920    5.8740 hc        1 MOL      0.086817
      5 H2         -0.0310    2.2690    6.5870 hc        1 MOL      0.086817
      6 H3         -0.6060    0.5840    6.5650 hc        1 MOL      0.086817
      7 N1         -1.8670    1.0410    4.3120 n         1 MOL     -0.594161
      8 C3         -2.5350    1.1900    2.9880 c3        1 MOL      0.100195
      9 C4         -2.9810    2.6870    2.7620 c         1 MOL      0.507283
     10 O2         -3.8210    3.2680    3.4490 o         1 MOL     -0.550925
     11 C5         -3.7670    0.2310    3.0190 c3        1 MOL     -0.301233
     12 C6         -4.6650    0.1030    1.7630 c         1 MOL      0.855130
     13 O3         -5.8540   -0.0570    1.9680 o         1 MOL     -0.678346
     14 O4         -4.1330    0.3030    0.6680 o         1 MOL     -0.678346
     15 H4         -2.2430    0.3060    4.8790 hn        1 MOL      0.296474
     16 H5         -1.8360    0.9070    2.2080 h1        1 MOL      0.091676
     17 H6         -4.4190    0.6460    3.7790 hc        1 MOL      0.047456
     18 H7         -3.4930   -0.7910    3.2970 hc        1 MOL      0.047456
     19 N2         -2.4820    3.2780    1.6680 n         1 MOL     -0.181310
     20 C7         -2.8020    4.7100    1.2790 c3        1 MOL     -0.102560
     21 C8         -4.1220    4.7290    0.5240 c         1 MOL      0.574347
     22 O5         -4.9280    5.5550    0.8170 o         1 MOL     -0.607658
     23 C9         -1.6460    5.2460    0.3710 c3        1 MOL      0.258623
     24 C10        -0.3980    5.4040    1.1490 c3        1 MOL      0.048392
     25 C11        -2.0440    6.6750   -0.0930 c3        1 MOL     -0.424393
     26 C12         0.9720    5.6080    0.4280 c3        1 MOL     -0.176343
     27 H8         -1.9590    2.7180    1.0090 hn        1 MOL      0.109674
     28 H9         -2.8590    5.4210    2.1100 h1        1 MOL      0.071279
     29 H10        -1.5180    4.5380   -0.4450 hc        1 MOL      0.002618
     30 H11        -0.3430    4.5620    1.8260 hc        1 MOL     -0.003593
     31 H12        -0.4870    6.3050    1.7630 hc        1 MOL     -0.003593
     32 H13        -2.9610    6.5080   -0.6630 hc        1 MOL      0.091429
     33 H14        -2.0730    7.3400    0.7640 hc        1 MOL      0.091429
     34 H15        -1.2530    6.9730   -0.7790 hc        1 MOL      0.091429
     35 H16         1.8170    5.3890    1.0860 hc        1 MOL      0.038519
     36 H17         1.0190    4.9820   -0.4560 hc        1 MOL      0.038519
     37 H18         1.0640    6.6630    0.1960 hc        1 MOL      0.038519
     38 N3         -4.4790    3.7820   -0.3420 n         1 MOL     -0.334075
     39 C13        -5.5790    3.8350   -1.3350 c3        1 MOL      0.091606
     40 C14        -6.8280    3.0010   -0.9820 c         1 MOL      0.375061
     41 O6         -7.8800    3.1640   -1.6140 o         1 MOL     -0.559366
     42 C15        -4.9800    3.4920   -2.7620 c3        1 MOL     -0.294342
     43 C16        -3.8560    2.4780   -2.9290 c         1 MOL      0.835281
     44 O7         -3.3120    2.3330   -4.0660 o         1 MOL     -0.720634
     45 O8         -3.3640    1.9480   -1.9390 o         1 MOL     -0.720634
     46 H19        -3.8500    2.9920   -0.4520 hn        1 MOL      0.204592
     47 H20        -5.9070    4.8730   -1.3980 h1        1 MOL      0.077141
     48 H21        -4.6420    4.4320   -3.1880 hc        1 MOL      0.064309
     49 H22        -5.7720    3.0970   -3.3930 hc        1 MOL      0.064309
     50 N4         -6.8780    2.2150    0.0490 n         1 MOL     -0.083506
     51 C17        -8.1850    1.5880    0.4780 c3        1 MOL     -0.207708
     52 C18        -8.5060    0.3490   -0.3920 c         1 MOL      0.521796
     53 O9         -9.6510    0.1160   -0.7940 o         1 MOL     -0.604553
     54 H23        -5.9920    2.0940    0.5180 hn        1 MOL      0.140907
     55 H24        -9.0380    2.2640    0.3870 h1        1 MOL      0.101051
     56 H25        -8.1040    1.2480    1.5090 h1        1 MOL      0.101051
     57 N5         -7.4930   -0.4210   -0.6740 n         1 MOL     -0.156440
     58 C19        -7.5890   -1.7320   -1.4060 c3        1 MOL      0.092276
     59 C20        -7.3230   -2.9850   -0.5070 c         1 MOL      0.424251
     60 O10        -7.6450   -4.0790   -0.9380 o         1 MOL     -0.540529
     61 C21        -6.6390   -1.7440   -2.5510 c3        1 MOL     -0.207357
     62 C22        -5.1910   -1.3960   -2.2340 c         1 MOL      0.765696
     63 O11        -4.4310   -0.8600   -3.0830 o         1 MOL     -0.747316
     64 O12        -4.6620   -1.6550   -1.1640 o         1 MOL     -0.747316
     65 H26        -6.5720   -0.1910   -0.3310 hn        1 MOL      0.105304
     66 H27        -8.6060   -1.8920   -1.7680 h1        1 MOL      0.064027
     67 H28        -7.0130   -1.0040   -3.2500 hc        1 MOL      0.052489
     68 H29        -6.7310   -2.7390   -2.9890 hc        1 MOL      0.052489
     69 N6         -6.8000   -2.8480    0.7410 n         1 MOL     -0.392322
     70 C23        -6.4760   -4.0030    1.6890 c3        1 MOL      0.051087
     71 C24        -5.1010   -4.5620    1.4830 c         1 MOL      0.418140
     72 O13        -4.7560   -5.5620    2.1430 o         1 MOL     -0.607970
     73 H30        -6.4270   -1.9440    1.0050 hn        1 MOL      0.192378
     74 H31        -7.2200   -4.8010    1.7130 h1        1 MOL      0.060858
     75 H32        -6.5030   -3.6170    2.7080 h1        1 MOL      0.060858
     76 N7         -4.2840   -3.9620    0.6720 n         1 MOL     -0.029850
     77 C25        -2.9080   -4.5630    0.5190 c3        1 MOL     -0.075725
     78 C26        -1.7990   -3.5100    0.7140 c         1 MOL      0.545771
     79 O14        -1.9480   -2.2460    0.6460 o         1 MOL     -0.717000
     80 C27        -2.7490   -5.5030   -0.7310 c3        1 MOL     -0.021009
     81 C28        -2.9570   -4.9270   -2.1640 c3        1 MOL     -0.245689
     82 C29        -1.9210   -3.8740   -2.5840 c         1 MOL      0.580539
     83 N8         -0.8380   -4.3590   -3.1980 n         1 MOL     -0.768910
     84 O15        -1.9510   -2.7110   -2.3240 o         1 MOL     -0.485897
     85 H33        -4.4130   -3.0460    0.2600 hn        1 MOL      0.172662
     86 H34        -2.7530   -5.0680    1.4720 h1        1 MOL      0.077707
     87 H35        -3.4200   -6.3030   -0.4160 hc        1 MOL      0.023375
     88 H36        -1.7280   -5.8630   -0.7480 hc        1 MOL      0.023375
     89 H37        -3.9480   -4.4770   -2.2400 hc        1 MOL      0.090034
     90 H38        -2.8890   -5.7660   -2.8520 hc        1 MOL      0.090034
     91 H39        -0.7970   -5.2610   -3.6570 hn        1 MOL      0.367332
     92 H40        -0.1770   -3.6060   -3.2650 hn        1 MOL      0.367332
     93 N9         -0.5980   -3.9730    1.0620 n         1 MOL     -0.325515
     94 C30         0.5400   -3.1550    1.4070 c3        1 MOL     -0.024681
     95 C31         1.7740   -3.4910    0.6020 c         1 MOL      0.366134
     96 O16         2.4480   -4.4510    0.8180 o         1 MOL     -0.548068
     97 C32         0.8130   -3.2500    2.9430 c3        1 MOL      0.240656
     98 C33         1.8730   -2.2540    3.4770 c3        1 MOL     -0.200217
     99 C34        -0.4860   -3.0480    3.7550 c3        1 MOL     -0.200217
    100 H41        -0.5220   -4.9490    1.3320 hn        1 MOL      0.256086
    101 H42         0.4190   -2.0810    1.2870 h1        1 MOL      0.185885
    102 H43         1.1760   -4.2650    3.1010 hc        1 MOL     -0.042282
    103 H44         2.8520   -2.5410    3.0840 hc        1 MOL      0.034092
    104 H45         1.6360   -1.2180    3.2070 hc        1 MOL      0.034092
    105 H46         1.9490   -2.4700    4.5360 hc        1 MOL      0.034092
    106 H47        -0.2330   -3.0830    4.8190 hc        1 MOL      0.034092
    107 H48        -0.8990   -2.0500    3.6350 hc        1 MOL      0.034092
    108 H49        -1.2010   -3.8580    3.6290 hc        1 MOL      0.034092
    109 N10         2.0750   -2.6360   -0.3140 n         1 MOL     -0.157081
    110 C35         3.2660   -2.6460   -1.1240 c3        1 MOL      0.077266
    111 C36         4.5820   -2.1960   -0.3310 c         1 MOL      0.317861
    112 O17         4.4060   -1.6780    0.8390 o         1 MOL     -0.339461
    113 C37         3.1090   -1.7320   -2.3520 c3        1 MOL     -0.458633
    114 C38         1.9080   -2.1210   -3.2280 c         1 MOL      0.774638
    115 N11         0.8390   -1.4550   -3.2300 n         1 MOL     -0.765624
    116 O18         1.9600   -3.0560   -3.9920 o         1 MOL     -0.651282
    117 H50         1.4540   -1.8550   -0.4170 hn        1 MOL      0.152297
    118 H51         3.2440   -3.6870   -1.4510 h1        1 MOL      0.067826
    119 H52         4.0290   -1.8590   -2.9090 hc        1 MOL      0.132850
    120 H53         2.9110   -0.7020   -2.0580 hc        1 MOL      0.132850
    121 H54         0.7460   -0.7240   -2.5450 hn        1 MOL      0.349038
    122 H55         0.0660   -1.7790   -3.8010 hn        1 MOL      0.349038
    123 N12         5.7640   -2.3800   -0.8920 n         1 MOL     -0.443307
    124 C39         7.0030   -1.9540   -0.2020 c3        1 MOL      0.344901
    125 C40         7.0380   -0.4410   -0.0490 c         1 MOL      0.474503
    126 O19         7.5070    0.0810    0.9310 o         1 MOL     -0.478674
    127 C41         8.2050   -2.5410   -0.9610 c3        1 MOL     -0.196214
    128 C42         9.5610   -2.0670   -0.5020 ca        1 MOL      0.198394
    129 C43         9.9520   -2.3130    0.7980 ca        1 MOL     -0.275110
    130 C44        10.4710   -1.4860   -1.3370 ca        1 MOL     -0.275110
    131 C45        11.1510   -1.8620    1.3270 ca        1 MOL     -0.215104
    132 C46        11.6680   -0.9020   -0.8600 ca        1 MOL     -0.215104
    133 C47        12.0100   -1.1110    0.4800 ca        1 MOL      0.355690
    134 O20        13.2690   -0.6730    0.7660 oh        1 MOL     -0.519201
    135 H56         5.9240   -2.9810   -1.6820 hn        1 MOL      0.285130
    136 H57         6.9210   -2.3700    0.8000 h1        1 MOL     -0.009169
    137 H58         8.0390   -2.2030   -1.9770 hc        1 MOL      0.041833
    138 H59         8.1240   -3.6290   -0.8840 hc        1 MOL      0.041833
    139 H60         9.3290   -2.9490    1.4030 ha        1 MOL      0.156179
    140 H61        10.2580   -1.2800   -2.3690 ha        1 MOL      0.156179
    141 H62        11.5440   -2.2220    2.2730 ha        1 MOL      0.146537
    142 H63        12.2960   -0.3370   -1.5270 ha        1 MOL      0.146537
    143 H64        13.5560   -0.1440    0.0260 ho        1 MOL      0.353151
    144 N13         6.5760    0.3280   -1.0290 n         1 MOL     -0.290345
    145 C48         6.6030    1.7770   -1.0310 c3        1 MOL     -0.309213
    146 C49         5.6830    2.3560    0.0170 c         1 MOL      0.406957
    147 O21         5.9870    3.3180    0.7350 o         1 MOL     -0.506148
    148 C50         6.3610    2.3630   -2.4340 c3        1 MOL      0.397853
    149 C51         6.0550    3.8780   -2.5050 c3        1 MOL     -0.432898
    150 C52         6.1280    4.5430   -3.8870 c         1 MOL      0.816014
    151 O22         6.6860    3.9700   -4.7870 o         1 MOL     -0.762058
    152 O23         5.6200    5.6980   -4.0490 o         1 MOL     -0.762058
    153 H65         6.2230   -0.0860   -1.8870 hn        1 MOL      0.201311
    154 H66         7.5480    2.2610   -0.7550 h1        1 MOL      0.132891
    155 H67         5.5730    1.7720   -2.8770 hc        1 MOL     -0.074338
    156 H68         7.1750    2.0980   -3.0950 hc        1 MOL     -0.074338
    157 H69         6.9590    4.2670   -2.0160 hc        1 MOL      0.077572
    158 H70         5.1000    4.0190   -2.0060 hc        1 MOL      0.077572
    159 N14         4.5550    1.7220    0.2510 n         1 MOL     -0.079977
    160 C53         3.6120    2.0970    1.3070 c3        1 MOL     -0.263112
    161 C54         4.1880    1.7480    2.7310 c         1 MOL      0.483726
    162 O24         4.0740    2.5220    3.6730 o         1 MOL     -0.562130
    163 C55         2.2760    1.2850    1.2190 c3        1 MOL      0.287271
    164 C56         1.4530    1.6790   -0.0200 c3        1 MOL      0.164617
    165 C57         0.2280    0.7750   -0.2640 c         1 MOL      0.523807
    166 O25        -0.8980    1.1910    0.0690 o         1 MOL     -0.651891
    167 O26         0.2750   -0.3840   -0.8110 o         1 MOL     -0.651891
    168 H71         4.3350    0.9440   -0.3700 hn        1 MOL      0.162655
    169 H72         3.3780    3.1600    1.2120 h1        1 MOL      0.153929
    170 H73         1.6020    1.4220    2.0680 hc        1 MOL     -0.064770
    171 H74         2.5490    0.2330    1.1490 hc        1 MOL     -0.064770
    172 H75         2.0560    1.5540   -0.9170 hc        1 MOL     -0.071708
    173 H76         1.2850    2.7460    0.1030 hc        1 MOL     -0.071708
    174 N15         4.7080    0.5570    2.9250 n         1 MOL     -0.047700
    175 C58         5.3780    0.1310    4.1480 c3        1 MOL     -0.125858
    176 H77         6.4120   -0.1290    3.9230 h1        1 MOL      0.056642
    177 H78         5.3580    0.9430    4.8750 h1        1 MOL      0.056642
    178 H79         4.8650   -0.7380    4.5600 h1        1 MOL      0.056642
    179 H80         4.7460   -0.0810    2.1500 hn        1 MOL      0.034093
    180 Ca1        -2.4830   -0.3820   -1.1270 Ca        1 MOL      1.734037
    181 O27        -1.3920    0.5200   -3.5850 oh        1 MOL     -0.870504
    182 H81        -0.6830    0.5710   -4.2310 ho        1 MOL      0.400296
    183 H82        -2.0000    1.2140   -3.8460 ho        1 MOL      0.400296
@<TRIPOS>BOND
     1    1    2 1   
     2    1    4 1   
     3    1    5 1   
     4    1    6 1   
     5    2    3 2   
     6    2    7 1   
     7    7    8 1   
     8    7   15 1   
     9    8    9 1   
    10    8   11 1   
    11    8   16 1   
    12    9   10 2   
    13    9   19 1   
    14   11   12 1   
    15   11   17 1   
    16   11   18 1   
    17   12   13 1   
    18   12   14 1   
    19   19   20 1   
    20   19   27 1   
    21   20   21 1   
    22   20   23 1   
    23   20   28 1   
    24   21   22 2   
    25   21   38 1   
    26   23   24 1   
    27   23   25 1   
    28   23   29 1   
    29   24   26 1   
    30   24   30 1   
    31   24   31 1   
    32   25   32 1   
    33   25   33 1   
    34   25   34 1   
    35   26   35 1   
    36   26   36 1   
    37   26   37 1   
    38   38   39 1   
    39   38   46 1   
    40   39   40 1   
    41   39   42 1   
    42   39   47 1   
    43   40   41 2   
    44   40   50 1   
    45   42   43 1   
    46   42   48 1   
    47   42   49 1   
    48   43   44 1   
    49   43   45 1   
    50   50   51 1   
    51   50   54 1   
    52   51   52 1   
    53   51   55 1   
    54   51   56 1   
    55   52   53 2   
    56   52   57 1   
    57   57   58 1   
    58   57   65 1   
    59   58   59 1   
    60   58   61 1   
    61   58   66 1   
    62   59   60 2   
    63   59   69 1   
    64   61   62 1   
    65   61   67 1   
    66   61   68 1   
    67   62   63 1   
    68   62   64 1   
    69   69   70 1   
    70   69   73 1   
    71   70   71 1   
    72   70   74 1   
    73   70   75 1   
    74   71   72 2   
    75   71   76 1   
    76   76   77 1   
    77   76   85 1   
    78   77   78 1   
    79   77   80 1   
    80   77   86 1   
    81   78   79 2   
    82   78   93 1   
    83   80   81 1   
    84   80   87 1   
    85   80   88 1   
    86   81   82 1   
    87   81   89 1   
    88   81   90 1   
    89   82   83 1   
    90   82   84 2   
    91   83   91 1   
    92   83   92 1   
    93   93   94 1   
    94   93  100 1   
    95   94   95 1   
    96   94   97 1   
    97   94  101 1   
    98   95   96 2   
    99   95  109 1   
   100   97   98 1   
   101   97   99 1   
   102   97  102 1   
   103   98  103 1   
   104   98  104 1   
   105   98  105 1   
   106   99  106 1   
   107   99  107 1   
   108   99  108 1   
   109  109  110 1   
   110  109  117 1   
   111  110  111 1   
   112  110  113 1   
   113  110  118 1   
   114  111  112 2   
   115  111  123 1   
   116  113  114 1   
   117  113  119 1   
   118  113  120 1   
   119  114  115 1   
   120  114  116 2   
   121  115  121 1   
   122  115  122 1   
   123  123  124 1   
   124  123  135 1   
   125  124  125 1   
   126  124  127 1   
   127  124  136 1   
   128  125  126 2   
   129  125  144 1   
   130  127  128 1   
   131  127  137 1   
   132  127  138 1   
   133  128  129 ar  
   134  128  130 ar  
   135  129  131 ar  
   136  129  139 1   
   137  130  132 ar  
   138  130  140 1   
   139  131  133 ar  
   140  131  141 1   
   141  132  133 ar  
   142  132  142 1   
   143  133  134 1   
   144  134  143 1   
   145  144  145 1   
   146  144  153 1   
   147  145  146 1   
   148  145  148 1   
   149  145  154 1   
   150  146  147 2   
   151  146  159 1   
   152  148  149 1   
   153  148  155 1   
   154  148  156 1   
   155  149  150 1   
   156  149  157 1   
   157  149  158 1   
   158  150  151 1   
   159  150  152 1   
   160  159  160 1   
   161  159  168 1   
   162  160  161 1   
   163  160  163 1   
   164  160  169 1   
   165  161  162 2   
   166  161  174 1   
   167  163  164 1   
   168  163  170 1   
   169  163  171 1   
   170  164  165 1   
   171  164  172 1   
   172  164  173 1   
   173  165  166 1   
   174  165  167 1   
   175  174  175 1   
   176  174  179 1   
   177  175  176 1   
   178  175  177 1   
   179  175  178 1   
   180  181  182 1   
   181  181  183 1   
@<TRIPOS>SUBSTRUCTURE
     1 MOL         1 TEMP              0 ****  ****    0 ROOT
