@<TRIPOS>MOLECULE
MOL
  189   185     1     0     0
SMALL
resp


@<TRIPOS>ATOM
      1 C1          0.5890   -3.5590    6.2630 c3        1 MOL     -0.499208
      2 C2          0.9900   -3.1510    4.7690 c         1 MOL      0.710004
      3 O1          1.1930   -1.9910    4.4590 o         1 MOL     -0.539284
      4 H1          0.1150   -2.7110    6.7570 hc        1 MOL      0.132745
      5 H2         -0.1070   -4.3980    6.2360 hc        1 MOL      0.132745
      6 H3          1.4840   -3.8460    6.8140 hc        1 MOL      0.132745
      7 N1          1.3630   -4.1740    3.9670 n         1 MOL     -0.621002
      8 C3          1.9630   -4.0110    2.6240 c3        1 MOL      0.366679
      9 C4          1.6460   -5.0840    1.5710 c         1 MOL      0.450681
     10 O2          1.4700   -6.2880    1.9150 o         1 MOL     -0.604179
     11 C5          3.5190   -3.8530    2.7480 c3        1 MOL     -0.444657
     12 C6          4.1730   -3.0580    1.5590 c         1 MOL      0.781686
     13 O3          3.5080   -2.4940    0.6410 o         1 MOL     -0.678606
     14 O4          5.4390   -3.0300    1.6550 o         1 MOL     -0.678606
     15 H4          1.2000   -5.1100    4.3200 hn        1 MOL      0.305615
     16 H5          1.6570   -3.0240    2.2890 h1        1 MOL      0.037935
     17 H6          3.9670   -4.8450    2.6880 hc        1 MOL      0.108434
     18 H7          3.7400   -3.3130    3.6640 hc        1 MOL      0.108434
     19 N2          1.5670   -4.6760    0.3060 n         1 MOL     -0.054684
     20 C7          1.3980   -5.5050   -0.8700 c3        1 MOL     -0.070403
     21 C8          2.5070   -5.3400   -1.9200 c         1 MOL      0.534834
     22 O5          2.7540   -6.2950   -2.6310 o         1 MOL     -0.577796
     23 C9         -0.0540   -5.2320   -1.4600 c3        1 MOL      0.347571
     24 C10        -1.2490   -5.7610   -0.5350 c3        1 MOL      0.129744
     25 C11        -0.2520   -5.8060   -2.8780 c3        1 MOL     -0.393737
     26 C12        -2.6060   -5.1920   -0.9570 c3        1 MOL     -0.182965
     27 H8          1.5350   -3.6880    0.0690 hn        1 MOL     -0.312949
     28 H9          1.4200   -6.5830   -0.6800 h1        1 MOL      0.056246
     29 H10        -0.2370   -4.1690   -1.6340 hc        1 MOL      0.007029
     30 H11        -1.0040   -5.4350    0.4700 hc        1 MOL     -0.059134
     31 H12        -1.2820   -6.8540   -0.6080 hc        1 MOL     -0.059134
     32 H13         0.0350   -6.8520   -2.8370 hc        1 MOL      0.076917
     33 H14        -1.2220   -5.6460   -3.3570 hc        1 MOL      0.076917
     34 H15         0.4430   -5.3140   -3.5590 hc        1 MOL      0.076917
     35 H16        -3.2790   -5.4570   -0.1470 hc        1 MOL      0.040906
     36 H17        -2.5420   -4.1060   -1.0780 hc        1 MOL      0.040906
     37 H18        -2.9080   -5.6450   -1.8970 hc        1 MOL      0.040906
     38 N3          3.1390   -4.1780   -2.0550 n         1 MOL     -0.366754
     39 C13         3.9410   -3.7740   -3.2060 c3        1 MOL      0.087897
     40 C14         5.3650   -3.1760   -2.8650 c         1 MOL      0.270303
     41 O6          6.1920   -2.9580   -3.7420 o         1 MOL     -0.534952
     42 C15         3.1510   -2.7480   -4.1160 c3        1 MOL     -0.288927
     43 C16         2.6650   -1.4250   -3.4720 c         1 MOL      0.745807
     44 O7          3.1500   -1.0890   -2.3750 o         1 MOL     -0.668763
     45 O8          1.7940   -0.7410   -4.0750 o         1 MOL     -0.668763
     46 H19         2.9410   -3.4360   -1.3970 hn        1 MOL      0.372959
     47 H20         4.0510   -4.6500   -3.8430 h1        1 MOL      0.091828
     48 H21         2.2670   -3.2440   -4.5070 hc        1 MOL      0.075989
     49 H22         3.8340   -2.4350   -4.9030 hc        1 MOL      0.075989
     50 N4          5.6510   -2.7680   -1.6630 n         1 MOL     -0.049812
     51 C17         6.8410   -2.0530   -1.1280 c3        1 MOL      0.011162
     52 C18         7.2250   -0.7710   -1.9220 c         1 MOL      0.427607
     53 O9          8.3890   -0.4680   -2.1050 o         1 MOL     -0.580663
     54 H23         4.9500   -3.0860   -1.0180 hn        1 MOL      0.047349
     55 H24         7.7470   -2.6380   -1.0100 h1        1 MOL      0.035121
     56 H25         6.5200   -1.6490   -0.1690 h1        1 MOL      0.035121
     57 N5          6.2190    0.0120   -2.2830 n         1 MOL     -0.108608
     58 C19         6.4760    1.4800   -2.6540 c3        1 MOL     -0.169147
     59 C20         6.9040    2.4950   -1.6210 c         1 MOL      0.512373
     60 O10         7.1980    3.6760   -1.9560 o         1 MOL     -0.561713
     61 C21         5.2170    1.9500   -3.4200 c3        1 MOL     -0.089681
     62 C22         3.9650    1.9740   -2.5560 c         1 MOL      0.712073
     63 O11         4.0640    1.6020   -1.3610 o         1 MOL     -0.687042
     64 O12         2.8570    2.4270   -3.0590 o         1 MOL     -0.687042
     65 H26         5.2840   -0.2710   -2.0260 hn        1 MOL      0.132682
     66 H27         7.3770    1.3550   -3.2560 h1        1 MOL      0.121953
     67 H28         5.1040    1.1830   -4.1900 hc        1 MOL      0.036323
     68 H29         5.3720    2.8890   -3.9410 hc        1 MOL      0.036323
     69 N6          6.8540    2.0950   -0.3480 n         1 MOL     -0.276028
     70 C23         7.1110    2.8710    0.8270 c3        1 MOL     -0.209492
     71 C24         5.9790    3.7330    1.4350 c         1 MOL      0.487559
     72 O13         6.1780    4.4650    2.4040 o         1 MOL     -0.605808
     73 H30         6.4480    1.1750   -0.2740 hn        1 MOL      0.222583
     74 H31         7.8680    3.5540    0.4370 h1        1 MOL      0.104069
     75 H32         7.6290    2.2550    1.5590 h1        1 MOL      0.104069
     76 N7          4.8080    3.5830    0.8740 n         1 MOL     -0.135052
     77 C25         3.5720    4.2400    1.3370 c3        1 MOL      0.021462
     78 C26         2.5040    3.1960    1.6150 c         1 MOL      0.397069
     79 O14         2.4240    2.2160    0.8690 o         1 MOL     -0.611104
     80 C27         3.1860    5.2660    0.2930 c3        1 MOL      0.057614
     81 C28         4.0690    6.5590    0.3820 c3        1 MOL     -0.327144
     82 C29         3.5370    7.6730   -0.5040 c         1 MOL      0.593434
     83 N8          4.3210    8.3080   -1.3220 n         1 MOL     -0.623398
     84 O15         2.3640    7.9210   -0.5430 o         1 MOL     -0.537690
     85 H33         4.7680    2.9830    0.0650 hn        1 MOL      0.177182
     86 H34         3.7490    4.6610    2.3370 h1        1 MOL      0.048317
     87 H35         2.1720    5.6080    0.4990 hc        1 MOL      0.057638
     88 H36         3.2780    4.9620   -0.7530 hc        1 MOL      0.057638
     89 H37         5.0620    6.3480    0.0040 hc        1 MOL      0.086629
     90 H38         4.2180    6.9380    1.4000 hc        1 MOL      0.086629
     91 H39         5.2930    8.1190   -1.1160 hn        1 MOL      0.296873
     92 H40         4.1200    9.2140   -1.7110 hn        1 MOL      0.296873
     93 N9          1.5740    3.4700    2.5210 n         1 MOL     -0.340441
     94 C30         0.4410    2.6000    2.7250 c3        1 MOL      0.020642
     95 C31        -0.6700    3.1110    1.7750 c         1 MOL      0.536191
     96 O16        -1.0560    4.2770    1.8260 o         1 MOL     -0.608867
     97 C32         0.0100    2.6340    4.2000 c3        1 MOL      0.073558
     98 C33        -1.4310    2.0880    4.4400 c3        1 MOL     -0.168124
     99 C34         0.9750    1.9030    5.0970 c3        1 MOL     -0.168124
    100 H41         1.6070    4.3530    2.9990 hn        1 MOL      0.265921
    101 H42         0.7940    1.6390    2.3680 h1        1 MOL      0.164606
    102 H43         0.0240    3.6930    4.4520 hc        1 MOL      0.001717
    103 H44        -1.5990    1.1690    3.8690 hc        1 MOL      0.033920
    104 H45        -1.6920    1.9400    5.4830 hc        1 MOL      0.033920
    105 H46        -2.0360    2.8370    3.9380 hc        1 MOL      0.033920
    106 H47         0.8630    2.0540    6.1780 hc        1 MOL      0.033920
    107 H48         0.9230    0.8300    4.9040 hc        1 MOL      0.033920
    108 H49         1.9620    2.3260    4.9440 hc        1 MOL      0.033920
    109 N10        -1.1860    2.2170    0.9770 n         1 MOL     -0.129787
    110 C35        -2.3660    2.4040    0.0830 c3        1 MOL      0.291444
    111 C36        -3.6790    2.0730    0.7420 c         1 MOL      0.088372
    112 O17        -3.7040    1.2560    1.6360 o         1 MOL     -0.234193
    113 C37        -2.1610    1.5900   -1.2040 c3        1 MOL     -0.404690
    114 C38        -3.3290    1.6410   -2.1340 c         1 MOL      0.812910
    115 N11        -3.6860    2.7100   -2.7430 n         1 MOL     -0.832513
    116 O18        -4.0120    0.6500   -2.3690 o         1 MOL     -0.559880
    117 H50        -0.7240    1.3250    1.0050 hn        1 MOL     -0.018399
    118 H51        -2.4140    3.4500   -0.2050 h1        1 MOL     -0.019388
    119 H52        -1.8930    0.5550   -1.0040 hc        1 MOL      0.121295
    120 H53        -1.3430    2.0870   -1.7230 hc        1 MOL      0.121295
    121 H54        -3.2130    3.6010   -2.6320 hn        1 MOL      0.370691
    122 H55        -4.3400    2.6050   -3.5060 hn        1 MOL      0.370691
    123 N12        -4.7620    2.6100    0.2790 n         1 MOL     -0.169114
    124 C39        -6.0930    2.5370    0.9500 c3        1 MOL      0.119965
    125 C40        -6.6160    1.0920    1.0690 c         1 MOL      0.498915
    126 O19        -7.1340    0.8150    2.1170 o         1 MOL     -0.584359
    127 C41        -7.1000    3.5830    0.4240 c3        1 MOL     -0.276407
    128 C42        -7.5430    3.2910   -0.9770 ca        1 MOL     -0.008255
    129 C43        -8.6530    2.3480   -1.1350 ca        1 MOL     -0.018086
    130 C44        -7.1430    3.9670   -2.1200 ca        1 MOL     -0.018086
    131 C45        -9.1940    2.0570   -2.3780 ca        1 MOL     -0.404132
    132 C46        -7.7570    3.7210   -3.3230 ca        1 MOL     -0.404132
    133 C47        -8.6960    2.7200   -3.4630 ca        1 MOL      0.451753
    134 O20        -9.1050    2.3750   -4.7260 oh        1 MOL     -0.559051
    135 H56        -4.7370    3.0940   -0.6050 hn        1 MOL      0.157270
    136 H57        -5.9450    2.8530    1.9860 h1        1 MOL      0.060499
    137 H58        -6.5420    4.5110    0.5790 hc        1 MOL      0.086769
    138 H59        -8.0390    3.4790    0.9730 hc        1 MOL      0.086769
    139 H60        -9.0240    1.8640   -0.2340 ha        1 MOL      0.089503
    140 H61        -6.5400    4.8660   -2.0130 ha        1 MOL      0.089503
    141 H62        -9.8900    1.2360   -2.4840 ha        1 MOL      0.177724
    142 H63        -7.4620    4.1940   -4.2580 ha        1 MOL      0.177724
    143 H64        -9.7840    1.6930   -4.6730 ho        1 MOL      0.417986
    144 N13        -6.4540    0.1630    0.0860 n         1 MOL      0.001304
    145 C48        -6.8660   -1.2020    0.2310 c3        1 MOL     -0.104044
    146 C49        -5.8700   -1.9280    1.1170 c         1 MOL      0.320792
    147 O21        -6.1140   -3.0510    1.6170 o         1 MOL     -0.509099
    148 C50        -6.7990   -1.8250   -1.1650 c3        1 MOL     -0.127378
    149 C51        -7.8720   -1.2020   -2.0980 c3        1 MOL     -0.239753
    150 C52        -8.2290   -2.1630   -3.2500 c         1 MOL      0.692720
    151 O22        -7.4710   -2.0680   -4.2510 o         1 MOL     -0.738165
    152 O23        -9.2860   -2.8710   -3.1810 o         1 MOL     -0.738165
    153 H65        -5.8710    0.3230   -0.7270 hn        1 MOL      0.045734
    154 H66        -7.8750   -1.2340    0.6550 h1        1 MOL      0.096675
    155 H67        -6.8590   -2.9110   -1.0770 hc        1 MOL      0.108492
    156 H68        -5.8020   -1.5610   -1.5310 hc        1 MOL      0.108492
    157 H69        -7.5530   -0.2240   -2.4580 hc        1 MOL      0.062088
    158 H70        -8.7260   -0.9100   -1.4920 hc        1 MOL      0.062088
    159 N14        -4.6540   -1.3680    1.3160 n         1 MOL     -0.187581
    160 C53        -3.6480   -1.9780    2.2710 c3        1 MOL     -0.295280
    161 C54        -3.9330   -1.6130    3.7150 c         1 MOL      0.581202
    162 O24        -3.6690   -2.2440    4.6890 o         1 MOL     -0.574817
    163 C55        -2.1470   -1.6530    1.9940 c3        1 MOL      0.053221
    164 C56        -1.6080   -2.1020    0.6300 c3        1 MOL      0.052188
    165 C57        -0.2100   -1.5440    0.3480 c         1 MOL      0.659560
    166 O25         0.0670   -0.3790    0.7040 o         1 MOL     -0.637636
    167 O26         0.5850   -2.1980   -0.3710 o         1 MOL     -0.637636
    168 H71        -4.4070   -0.4660    0.9520 hn        1 MOL      0.186080
    169 H72        -3.7450   -3.0510    2.0970 h1        1 MOL      0.143699
    170 H73        -1.4500   -2.0900    2.7010 hc        1 MOL      0.022040
    171 H74        -1.9290   -0.5950    2.1080 hc        1 MOL      0.022040
    172 H75        -2.2650   -1.7340   -0.1640 hc        1 MOL      0.005486
    173 H76        -1.6960   -3.1870    0.6060 hc        1 MOL      0.005486
    174 N15        -4.4460   -0.3990    3.8440 n         1 MOL     -0.166267
    175 C58        -4.5130    0.3130    5.1440 c3        1 MOL     -0.142075
    176 H77        -4.5940   -0.4140    5.9530 h1        1 MOL      0.063399
    177 H78        -3.6090    0.9080    5.2800 h1        1 MOL      0.063399
    178 H79        -5.3850    0.9670    5.1570 h1        1 MOL      0.063399
    179 H80        -4.4900    0.2110    3.0410 hn        1 MOL      0.091218
    180 Ca1         2.5630   -0.2140   -0.0970 Ca        1 MOL      1.714839
    181 O27         4.9040   -0.3000    1.2810 oh        1 MOL     -0.775284
    182 H81         5.2050   -1.2010    1.3890 ho        1 MOL      0.368289
    183 H82         5.4120    0.1990    1.9290 ho        1 MOL      0.368289
    184 O28         2.6150   -0.2960    3.0360 oh        1 MOL     -0.775284
    185 H83         3.5270   -0.3580    3.3110 ho        1 MOL      0.368289
    186 H84         2.1370   -0.8550    3.6430 ho        1 MOL      0.368289
    187 O29         0.9310    0.8250   -1.9940 oh        1 MOL     -0.775284
    188 H85         1.1030    0.1940   -2.6940 ho        1 MOL      0.368289
    189 H86         1.4610    1.5880   -2.2170 ho        1 MOL      0.368289
@<TRIPOS>BOND
     1    1    2 1   
     2    1    4 1   
     3    1    5 1   
     4    1    6 1   
     5    2    3 2   
     6    2    7 1   
     7    7    8 1   
     8    7   15 1   
     9    8    9 1   
    10    8   11 1   
    11    8   16 1   
    12    9   10 2   
    13    9   19 1   
    14   11   12 1   
    15   11   17 1   
    16   11   18 1   
    17   12   13 1   
    18   12   14 1   
    19   19   20 1   
    20   19   27 1   
    21   20   21 1   
    22   20   23 1   
    23   20   28 1   
    24   21   22 2   
    25   21   38 1   
    26   23   24 1   
    27   23   25 1   
    28   23   29 1   
    29   24   26 1   
    30   24   30 1   
    31   24   31 1   
    32   25   32 1   
    33   25   33 1   
    34   25   34 1   
    35   26   35 1   
    36   26   36 1   
    37   26   37 1   
    38   38   39 1   
    39   38   46 1   
    40   39   40 1   
    41   39   42 1   
    42   39   47 1   
    43   40   41 2   
    44   40   50 1   
    45   42   43 1   
    46   42   48 1   
    47   42   49 1   
    48   43   44 1   
    49   43   45 1   
    50   50   51 1   
    51   50   54 1   
    52   51   52 1   
    53   51   55 1   
    54   51   56 1   
    55   52   53 2   
    56   52   57 1   
    57   57   58 1   
    58   57   65 1   
    59   58   59 1   
    60   58   61 1   
    61   58   66 1   
    62   59   60 2   
    63   59   69 1   
    64   61   62 1   
    65   61   67 1   
    66   61   68 1   
    67   62   63 1   
    68   62   64 1   
    69   69   70 1   
    70   69   73 1   
    71   70   71 1   
    72   70   74 1   
    73   70   75 1   
    74   71   72 2   
    75   71   76 1   
    76   76   77 1   
    77   76   85 1   
    78   77   78 1   
    79   77   80 1   
    80   77   86 1   
    81   78   79 2   
    82   78   93 1   
    83   80   81 1   
    84   80   87 1   
    85   80   88 1   
    86   81   82 1   
    87   81   89 1   
    88   81   90 1   
    89   82   83 1   
    90   82   84 2   
    91   83   91 1   
    92   83   92 1   
    93   93   94 1   
    94   93  100 1   
    95   94   95 1   
    96   94   97 1   
    97   94  101 1   
    98   95   96 2   
    99   95  109 1   
   100   97   98 1   
   101   97   99 1   
   102   97  102 1   
   103   98  103 1   
   104   98  104 1   
   105   98  105 1   
   106   99  106 1   
   107   99  107 1   
   108   99  108 1   
   109  109  110 1   
   110  109  117 1   
   111  110  111 1   
   112  110  113 1   
   113  110  118 1   
   114  111  112 2   
   115  111  123 1   
   116  113  114 1   
   117  113  119 1   
   118  113  120 1   
   119  114  115 1   
   120  114  116 2   
   121  115  121 1   
   122  115  122 1   
   123  123  124 1   
   124  123  135 1   
   125  124  125 1   
   126  124  127 1   
   127  124  136 1   
   128  125  126 2   
   129  125  144 1   
   130  127  128 1   
   131  127  137 1   
   132  127  138 1   
   133  128  129 ar  
   134  128  130 ar  
   135  129  131 ar  
   136  129  139 1   
   137  130  132 ar  
   138  130  140 1   
   139  131  133 ar  
   140  131  141 1   
   141  132  133 ar  
   142  132  142 1   
   143  133  134 1   
   144  134  143 1   
   145  144  145 1   
   146  144  153 1   
   147  145  146 1   
   148  145  148 1   
   149  145  154 1   
   150  146  147 2   
   151  146  159 1   
   152  148  149 1   
   153  148  155 1   
   154  148  156 1   
   155  149  150 1   
   156  149  157 1   
   157  149  158 1   
   158  150  151 1   
   159  150  152 1   
   160  159  160 1   
   161  159  168 1   
   162  160  161 1   
   163  160  163 1   
   164  160  169 1   
   165  161  162 2   
   166  161  174 1   
   167  163  164 1   
   168  163  170 1   
   169  163  171 1   
   170  164  165 1   
   171  164  172 1   
   172  164  173 1   
   173  165  166 1   
   174  165  167 1   
   175  174  175 1   
   176  174  179 1   
   177  175  176 1   
   178  175  177 1   
   179  175  178 1   
   180  181  182 1   
   181  181  183 1   
   182  184  185 1   
   183  184  186 1   
   184  187  188 1   
   185  187  189 1   
@<TRIPOS>SUBSTRUCTURE
     1 MOL         1 TEMP              0 ****  ****    0 ROOT
