@<TRIPOS>MOLECULE
MOL
  179   176     1     0     0
SMALL
resp


@<TRIPOS>ATOM
      1 C1          2.2690    1.9530    5.6980 c3        1 MOL     -0.260124
      2 C2          1.6430    1.9000    4.3000 c         1 MOL      0.625743
      3 O1          2.3370    1.7800    3.2550 o         1 MOL     -0.592675
      4 H1          2.6570    2.9550    5.8840 hc        1 MOL      0.071937
      5 H2          1.5120    1.7130    6.4450 hc        1 MOL      0.071937
      6 H3          3.0840    1.2320    5.7600 hc        1 MOL      0.071937
      7 N1          0.3550    2.2310    4.2940 n         1 MOL     -0.483692
      8 C3         -0.3730    2.2910    3.0830 c3        1 MOL     -0.006701
      9 C4         -0.2800    3.6380    2.3430 c         1 MOL      0.546381
     10 O2         -0.9550    4.6440    2.5340 o         1 MOL     -0.522542
     11 C5         -1.8450    1.9400    3.4030 c3        1 MOL      0.065275
     12 C6         -2.5670    1.6120    2.1090 c         1 MOL      0.708284
     13 O3         -3.7690    1.4260    2.2000 o         1 MOL     -0.710289
     14 O4         -1.9290    1.4830    1.0200 o         1 MOL     -0.710289
     15 H4         -0.1210    2.3520    5.1800 hn        1 MOL      0.323790
     16 H5         -0.0470    1.5150    2.3950 h1        1 MOL     -0.081939
     17 H6         -2.3510    2.7260    3.9770 hc        1 MOL     -0.025099
     18 H7         -1.8000    0.9970    3.9460 hc        1 MOL     -0.025099
     19 N2          0.6890    3.6130    1.4260 n         1 MOL     -0.201361
     20 C7          1.3450    4.7430    0.7600 c3        1 MOL     -0.166322
     21 C8          0.4960    5.5700   -0.2150 c         1 MOL      0.500288
     22 O5          0.8880    6.7090   -0.6080 o         1 MOL     -0.593773
     23 C9          2.5690    4.1090   -0.0310 c3        1 MOL     -0.085168
     24 C10         3.5570    5.0350   -0.8180 c3        1 MOL      0.038879
     25 C11         4.6990    4.1720   -1.4400 c3        1 MOL      0.044620
     26 C12         5.7270    4.9960   -2.2490 c3        1 MOL     -0.106583
     27 N3          5.1520    5.8740   -3.2320 n4        1 MOL     -0.219089
     28 H8          1.1020    2.7060    1.2330 hn        1 MOL      0.291620
     29 H9          1.7000    5.4600    1.5020 h1        1 MOL      0.120052
     30 H10         2.1650    3.4230   -0.7750 hc        1 MOL      0.088727
     31 H11         3.1980    3.5170    0.6400 hc        1 MOL      0.088727
     32 H12         3.9030    5.8340   -0.1670 hc        1 MOL     -0.002702
     33 H13         2.9540    5.4960   -1.6030 hc        1 MOL     -0.002702
     34 H14         4.2790    3.4900   -2.1780 hc        1 MOL      0.018350
     35 H15         5.1320    3.4730   -0.7210 hc        1 MOL      0.018350
     36 H16         6.3780    4.3160   -2.7960 hx        1 MOL      0.115249
     37 H17         6.3440    5.6170   -1.6020 hx        1 MOL      0.115249
     38 H18         5.7470    5.9930   -4.0320 hn        1 MOL      0.295550
     39 H19         4.3090    5.4780   -3.6310 hn        1 MOL      0.295550
     40 H20         4.8540    6.7920   -2.9160 hn        1 MOL      0.295550
     41 N4         -0.5960    4.9570   -0.6530 n         1 MOL     -0.104968
     42 C13        -1.6520    5.5680   -1.3770 c3        1 MOL     -0.039991
     43 C14        -3.0360    5.2730   -0.7270 c         1 MOL      0.409308
     44 O6         -4.0620    5.6720   -1.2800 o         1 MOL     -0.519416
     45 C15        -1.5620    5.0330   -2.8380 c3        1 MOL     -0.086650
     46 C16        -1.6410    3.5300   -2.9620 c         1 MOL      0.654945
     47 O7         -1.7340    3.0770   -4.1510 o         1 MOL     -0.695191
     48 O8         -1.6550    2.7810   -1.9240 o         1 MOL     -0.695191
     49 H21        -0.5750    3.9590   -0.4780 hn        1 MOL      0.011610
     50 H22        -1.5020    6.6350   -1.4530 h1        1 MOL      0.101079
     51 H23        -0.6720    5.4140   -3.3400 hc        1 MOL      0.040836
     52 H24        -2.4050    5.5190   -3.3270 hc        1 MOL      0.040836
     53 N5         -2.9940    4.7580    0.5340 n         1 MOL     -0.075349
     54 C17        -4.1230    4.5680    1.3360 c3        1 MOL     -0.070023
     55 C18        -5.2460    3.6490    0.8440 c         1 MOL      0.448844
     56 O9         -6.3820    3.6280    1.3000 o         1 MOL     -0.553808
     57 H25        -2.0840    4.6340    0.9490 hn        1 MOL      0.059600
     58 H26        -4.4990    5.5570    1.5880 h1        1 MOL      0.074623
     59 H27        -3.8520    4.1750    2.3160 h1        1 MOL      0.074623
     60 N6         -4.9270    2.7430   -0.1180 n         1 MOL     -0.187202
     61 C19        -5.9770    2.0000   -0.8500 c3        1 MOL     -0.163345
     62 C20        -6.5910    0.7310   -0.1730 c         1 MOL      0.434125
     63 O10        -7.4900    0.0820   -0.7550 o         1 MOL     -0.546404
     64 C21        -5.4780    1.5480   -2.1880 c3        1 MOL     -0.429145
     65 C22        -4.5900    0.2850   -2.1360 c         1 MOL      0.576850
     66 N7         -4.8550   -0.5940   -3.1190 n         1 MOL     -0.749822
     67 O11        -3.7050    0.2140   -1.3660 o         1 MOL     -0.508928
     68 H28        -3.9460    2.7440   -0.3600 hn        1 MOL      0.221076
     69 H29        -6.7480    2.6540   -1.2430 h1        1 MOL      0.178693
     70 H30        -4.9280    2.3640   -2.6550 hc        1 MOL      0.174276
     71 H31        -6.3540    1.3520   -2.8080 hc        1 MOL      0.174276
     72 H32        -5.4940   -0.2700   -3.8280 hn        1 MOL      0.360949
     73 H33        -4.1440   -1.2630   -3.3620 hn        1 MOL      0.360949
     74 N8         -6.1470    0.3190    0.9660 n         1 MOL     -0.148027
     75 C23        -6.5910   -0.8930    1.6380 c3        1 MOL     -0.240618
     76 C24        -5.7370   -2.2020    1.4360 c         1 MOL      0.500884
     77 O12        -6.1320   -3.2080    1.9380 o         1 MOL     -0.522091
     78 H34        -5.4770    0.8750    1.4850 hn        1 MOL      0.310464
     79 H35        -7.5300   -1.2100    1.1910 h1        1 MOL      0.126441
     80 H36        -6.7680   -0.6940    2.6950 h1        1 MOL      0.126441
     81 N9         -4.6130   -2.2070    0.7050 n         1 MOL     -0.329470
     82 C25        -3.5980   -3.2680    0.5980 c3        1 MOL      0.447102
     83 C26        -2.1770   -2.7360    0.8440 c         1 MOL      0.205167
     84 O13        -1.9010   -1.5730    0.3490 o         1 MOL     -0.597747
     85 C27        -3.6530   -4.0670   -0.6680 c3        1 MOL      0.209265
     86 C28        -4.8990   -4.8160   -0.8560 ca        1 MOL     -0.309047
     87 C29        -5.8030   -4.4140   -1.8740 ca        1 MOL      0.067988
     88 C30        -5.2780   -5.7260    0.1060 ca        1 MOL      0.067988
     89 C31        -7.0810   -5.0080   -2.0000 ca        1 MOL     -0.397358
     90 C32        -6.4700   -6.3630   -0.1250 ca        1 MOL     -0.397358
     91 C33        -7.4080   -6.0170   -1.0690 ca        1 MOL      0.511458
     92 O14        -8.5590   -6.7290   -1.1900 oh        1 MOL     -0.544713
     93 H37        -4.4310   -1.3360    0.2220 hn        1 MOL      0.195997
     94 H38        -3.6900   -3.9400    1.4520 h1        1 MOL     -0.033121
     95 H39        -2.8570   -4.8090   -0.6190 hc        1 MOL     -0.053037
     96 H40        -3.4490   -3.4440   -1.5430 hc        1 MOL     -0.053037
     97 H41        -5.5190   -3.7180   -2.6430 ha        1 MOL      0.075758
     98 H42        -4.5570   -6.0100    0.8560 ha        1 MOL      0.075758
     99 H43        -7.7520   -4.8040   -2.8200 ha        1 MOL      0.162114
    100 H44        -6.7810   -7.1690    0.5200 ha        1 MOL      0.162114
    101 H45        -9.1140   -6.4500   -1.9280 ho        1 MOL      0.382941
    102 N10        -1.2890   -3.4710    1.4650 n         1 MOL     -0.326843
    103 C34         0.1580   -3.1480    1.4710 c3        1 MOL      0.051469
    104 C35         1.0630   -4.0520    0.5850 c         1 MOL      0.362560
    105 O15         1.0130   -5.2390    0.7790 o         1 MOL     -0.514919
    106 C36         0.7330   -3.2770    2.9010 c3        1 MOL      0.228171
    107 C37        -0.0610   -2.5280    4.0380 c3        1 MOL     -0.010575
    108 C38         2.1710   -2.8450    2.9790 c3        1 MOL     -0.261502
    109 C39        -0.4420   -1.1290    3.6970 c3        1 MOL     -0.068256
    110 H46        -1.5890   -4.3180    1.9310 hn        1 MOL      0.289666
    111 H47         0.2880   -2.1570    1.0350 h1        1 MOL     -0.047928
    112 H48         0.6460   -4.2890    3.3120 hc        1 MOL     -0.004394
    113 H49         0.4800   -2.5620    4.9870 hc        1 MOL     -0.010409
    114 H50        -0.9470   -3.1650    4.1030 hc        1 MOL     -0.010409
    115 H51         2.5010   -3.0670    3.9970 hc        1 MOL      0.043709
    116 H52         2.8890   -3.3260    2.3010 hc        1 MOL      0.043709
    117 H53         2.1860   -1.7620    2.8400 hc        1 MOL      0.043709
    118 H54        -0.5590   -0.5730    4.6270 hc        1 MOL      0.044323
    119 H55         0.3110   -0.6610    3.0670 hc        1 MOL      0.044323
    120 H56        -1.3840   -1.1230    3.1490 hc        1 MOL      0.044323
    121 N11         1.8360   -3.3550   -0.2620 n         1 MOL     -0.143141
    122 C40         2.7560   -4.0310   -1.1180 c3        1 MOL     -0.139849
    123 C41         4.2160   -3.9430   -0.5830 c         1 MOL      0.472582
    124 O16         4.5450   -3.0080    0.1500 o         1 MOL     -0.438664
    125 C42         2.6460   -3.6030   -2.5860 c3        1 MOL      0.046932
    126 O17         3.1100   -2.2730   -2.6530 oh        1 MOL     -0.467024
    127 H57         1.9280   -2.3490   -0.1850 hn        1 MOL      0.433501
    128 H58         2.4920   -5.0950   -1.0830 h1        1 MOL      0.066253
    129 H59         1.6060   -3.6420   -2.9190 h1        1 MOL      0.053961
    130 H60         3.2810   -4.2950   -3.1340 h1        1 MOL      0.053961
    131 H61         2.5310   -1.7720   -2.0850 ho        1 MOL      0.259522
    132 N12         5.1210   -4.8140   -1.0050 n         1 MOL     -0.337812
    133 C43         6.4710   -4.7450   -0.4820 c3        1 MOL     -0.004158
    134 C44         7.2470   -3.4080   -0.6740 c         1 MOL      0.475904
    135 O18         7.9290   -2.9150    0.2340 o         1 MOL     -0.483107
    136 C45         7.3380   -5.8940   -1.0530 c3        1 MOL     -0.256567
    137 H62         4.8160   -5.6220   -1.5230 hn        1 MOL      0.280527
    138 H63         6.4250   -4.9700    0.5800 h1        1 MOL      0.100843
    139 H64         7.5720   -5.7700   -2.1100 hc        1 MOL      0.085709
    140 H65         8.3310   -5.9300   -0.6120 hc        1 MOL      0.085709
    141 H66         6.8490   -6.8620   -0.9220 hc        1 MOL      0.085709
    142 N13         7.0190   -2.8000   -1.8510 n         1 MOL     -0.355825
    143 C46         7.4280   -1.4200   -2.2170 c3        1 MOL      0.071542
    144 C47         7.1690   -0.4350   -1.0260 c         1 MOL      0.362374
    145 O19         7.9400    0.4610   -0.7270 o         1 MOL     -0.500507
    146 C48         6.5690   -0.9690   -3.4440 c3        1 MOL     -0.330002
    147 H67         6.5610   -3.3320   -2.5810 hn        1 MOL      0.259405
    148 H68         8.5050   -1.3960   -2.4200 h1        1 MOL      0.073939
    149 H69         6.8990   -1.5450   -4.3010 hc        1 MOL      0.098520
    150 H70         5.5030   -1.1550   -3.2850 hc        1 MOL      0.098520
    151 H71         6.8620    0.0320   -3.7540 hc        1 MOL      0.098520
    152 N14         5.9420   -0.5010   -0.5260 n         1 MOL      0.035776
    153 C49         5.3770    0.4150    0.4450 c3        1 MOL     -0.381620
    154 C50         6.0490    0.2260    1.8010 c         1 MOL      0.506333
    155 O20         6.5080    1.1750    2.4230 o         1 MOL     -0.547096
    156 C51         3.8660    0.2910    0.5010 c3        1 MOL      0.331974
    157 C52         3.3380    0.5560   -0.8620 c3        1 MOL      0.075297
    158 C53         1.8160    0.3120   -0.7610 c         1 MOL      0.461121
    159 O21         1.2290   -0.6350   -1.2990 o         1 MOL     -0.609365
    160 O22         1.1120    1.1630   -0.2480 o         1 MOL     -0.609365
    161 H72         5.3580   -1.2430   -0.9000 hn        1 MOL      0.074609
    162 H73         5.5730    1.4590    0.2040 h1        1 MOL      0.140749
    163 H74         3.4940    1.0620    1.1680 hc        1 MOL     -0.057242
    164 H75         3.6080   -0.6770    0.9300 hc        1 MOL     -0.057242
    165 H76         3.8920   -0.0210   -1.5960 hc        1 MOL     -0.069548
    166 H77         3.4340    1.6030   -1.1630 hc        1 MOL     -0.069548
    167 N15         6.2430   -1.0090    2.1810 n         1 MOL     -0.077296
    168 C54         6.8070   -1.4190    3.4700 c3        1 MOL     -0.302942
    169 H78         7.1100   -0.5350    4.0310 h1        1 MOL      0.117750
    170 H79         6.0570   -1.9690    4.0370 h1        1 MOL      0.117750
    171 H80         7.6750   -2.0560    3.3010 h1        1 MOL      0.117750
    172 H81         6.0270   -1.7310    1.5190 hn        1 MOL      0.132854
    173 Ca1        -1.1290    0.4610   -1.1190 Ca        1 MOL      1.718544
    174 O23        -1.3610   -1.8290   -2.4740 oh        1 MOL     -0.839093
    175 H82        -0.9090   -2.6060   -2.1470 ho        1 MOL      0.397681
    176 H83        -1.9520   -2.1520   -3.1530 ho        1 MOL      0.397681
    177 O24        -0.3950    0.7360   -3.6790 oh        1 MOL     -0.839093
    178 H84        -0.0990    0.3200   -4.4870 ho        1 MOL      0.397681
    179 H85        -0.9410    1.4710   -3.9740 ho        1 MOL      0.397681
@<TRIPOS>BOND
     1    1    2 1   
     2    1    4 1   
     3    1    5 1   
     4    1    6 1   
     5    2    3 2   
     6    2    7 1   
     7    7    8 1   
     8    7   15 1   
     9    8    9 1   
    10    8   11 1   
    11    8   16 1   
    12    9   10 2   
    13    9   19 1   
    14   11   12 1   
    15   11   17 1   
    16   11   18 1   
    17   12   13 1   
    18   12   14 1   
    19   19   20 1   
    20   19   28 1   
    21   20   21 1   
    22   20   23 1   
    23   20   29 1   
    24   21   22 2   
    25   21   41 1   
    26   23   24 1   
    27   23   30 1   
    28   23   31 1   
    29   24   25 1   
    30   24   32 1   
    31   24   33 1   
    32   25   26 1   
    33   25   34 1   
    34   25   35 1   
    35   26   27 1   
    36   26   36 1   
    37   26   37 1   
    38   27   38 1   
    39   27   39 1   
    40   27   40 1   
    41   41   42 1   
    42   41   49 1   
    43   42   43 1   
    44   42   45 1   
    45   42   50 1   
    46   43   44 2   
    47   43   53 1   
    48   45   46 1   
    49   45   51 1   
    50   45   52 1   
    51   46   47 1   
    52   46   48 1   
    53   53   54 1   
    54   53   57 1   
    55   54   55 1   
    56   54   58 1   
    57   54   59 1   
    58   55   56 2   
    59   55   60 1   
    60   60   61 1   
    61   60   68 1   
    62   61   62 1   
    63   61   64 1   
    64   61   69 1   
    65   62   63 2   
    66   62   74 1   
    67   64   65 1   
    68   64   70 1   
    69   64   71 1   
    70   65   66 1   
    71   65   67 2   
    72   66   72 1   
    73   66   73 1   
    74   74   75 1   
    75   74   78 1   
    76   75   76 1   
    77   75   79 1   
    78   75   80 1   
    79   76   77 2   
    80   76   81 1   
    81   81   82 1   
    82   81   93 1   
    83   82   83 1   
    84   82   85 1   
    85   82   94 1   
    86   83   84 2   
    87   83  102 1   
    88   85   86 1   
    89   85   95 1   
    90   85   96 1   
    91   86   87 ar  
    92   86   88 ar  
    93   87   89 ar  
    94   87   97 1   
    95   88   90 ar  
    96   88   98 1   
    97   89   91 ar  
    98   89   99 1   
    99   90   91 ar  
   100   90  100 1   
   101   91   92 1   
   102   92  101 1   
   103  102  103 1   
   104  102  110 1   
   105  103  104 1   
   106  103  106 1   
   107  103  111 1   
   108  104  105 2   
   109  104  121 1   
   110  106  107 1   
   111  106  108 1   
   112  106  112 1   
   113  107  109 1   
   114  107  113 1   
   115  107  114 1   
   116  108  115 1   
   117  108  116 1   
   118  108  117 1   
   119  109  118 1   
   120  109  119 1   
   121  109  120 1   
   122  121  122 1   
   123  121  127 1   
   124  122  123 1   
   125  122  125 1   
   126  122  128 1   
   127  123  124 2   
   128  123  132 1   
   129  125  126 1   
   130  125  129 1   
   131  125  130 1   
   132  126  131 1   
   133  132  133 1   
   134  132  137 1   
   135  133  134 1   
   136  133  136 1   
   137  133  138 1   
   138  134  135 2   
   139  134  142 1   
   140  136  139 1   
   141  136  140 1   
   142  136  141 1   
   143  142  143 1   
   144  142  147 1   
   145  143  144 1   
   146  143  146 1   
   147  143  148 1   
   148  144  145 2   
   149  144  152 1   
   150  146  149 1   
   151  146  150 1   
   152  146  151 1   
   153  152  153 1   
   154  152  161 1   
   155  153  154 1   
   156  153  156 1   
   157  153  162 1   
   158  154  155 2   
   159  154  167 1   
   160  156  157 1   
   161  156  163 1   
   162  156  164 1   
   163  157  158 1   
   164  157  165 1   
   165  157  166 1   
   166  158  159 1   
   167  158  160 1   
   168  167  168 1   
   169  167  172 1   
   170  168  169 1   
   171  168  170 1   
   172  168  171 1   
   173  174  175 1   
   174  174  176 1   
   175  177  178 1   
   176  177  179 1   
@<TRIPOS>SUBSTRUCTURE
     1 MOL         1 TEMP              0 ****  ****    0 ROOT
