@<TRIPOS>MOLECULE
MOL
  175   173     1     0     0
SMALL
resp


@<TRIPOS>ATOM
      1 C1          0.4110    4.4740    5.1880 c3        1 MOL     -0.251247
      2 C2         -0.2290    4.2500    3.8690 c         1 MOL      0.733384
      3 O1          0.4720    4.4670    2.8930 o         1 MOL     -0.558183
      4 H1          0.0590    5.4170    5.6070 hc        1 MOL      0.051808
      5 H2          0.1500    3.6570    5.8620 hc        1 MOL      0.051808
      6 H3          1.4940    4.5130    5.0650 hc        1 MOL      0.051808
      7 N1         -1.5340    4.0510    3.7540 n         1 MOL     -0.658695
      8 C3         -2.1630    3.7030    2.4930 c3        1 MOL      0.155110
      9 C4         -2.2180    4.8840    1.4320 c         1 MOL      0.662836
     10 O2         -2.4610    6.0290    1.7850 o         1 MOL     -0.594917
     11 C5         -3.5580    3.1440    2.7890 c3        1 MOL     -0.384725
     12 C6         -4.0770    2.4850    1.5360 c         1 MOL      0.745092
     13 O3         -3.2660    2.0060    0.6760 o         1 MOL     -0.664352
     14 O4         -5.2930    2.3500    1.3810 o         1 MOL     -0.664352
     15 H4         -2.0610    4.0030    4.6090 hn        1 MOL      0.323908
     16 H5         -1.5910    2.8720    2.0720 h1        1 MOL      0.060044
     17 H6         -4.1490    3.9690    3.1800 hc        1 MOL      0.094176
     18 H7         -3.5640    2.3300    3.5200 hc        1 MOL      0.094176
     19 N2         -2.2860    4.5490    0.1910 n         1 MOL     -0.651401
     20 C7         -2.7840    5.5020   -0.8230 c3        1 MOL      0.368451
     21 C8         -3.5240    4.8280   -2.0120 c         1 MOL      0.573931
     22 O5         -3.6710    5.3750   -3.1170 o         1 MOL     -0.582958
     23 C9         -1.6790    6.4920   -1.3360 c3        1 MOL     -0.346925
     24 H8         -2.2000    3.5630   -0.0200 hn        1 MOL      0.397095
     25 H9         -3.5800    6.0570   -0.3180 h1        1 MOL     -0.006044
     26 H10        -0.9850    5.9480   -1.9780 hc        1 MOL      0.081066
     27 H11        -2.2410    7.2400   -1.8990 hc        1 MOL      0.081066
     28 H12        -1.1430    6.9630   -0.5170 hc        1 MOL      0.081066
     29 N3         -4.2250    3.7120   -1.7930 n         1 MOL     -0.674115
     30 C10        -5.0220    3.0080   -2.8530 c3        1 MOL      0.382885
     31 C11        -6.3600    2.3680   -2.4410 c         1 MOL      0.221326
     32 O6         -7.2580    2.2180   -3.2490 o         1 MOL     -0.509976
     33 C12        -4.0980    2.0750   -3.6250 c3        1 MOL     -0.435106
     34 C13        -3.4010    1.0780   -2.7320 c         1 MOL      0.748877
     35 O7         -2.1410    1.0810   -2.7060 o         1 MOL     -0.713051
     36 O8         -3.9630    0.4440   -1.8260 o         1 MOL     -0.713051
     37 H13        -4.1090    3.2650   -0.8910 hn        1 MOL      0.354896
     38 H14        -5.3100    3.7210   -3.6230 h1        1 MOL      0.039247
     39 H15        -3.3090    2.6990   -4.0540 hc        1 MOL      0.112212
     40 H16        -4.6710    1.4950   -4.3450 hc        1 MOL      0.112212
     41 N4         -6.4110    1.9420   -1.1870 n         1 MOL     -0.029237
     42 C14        -7.6090    1.1420   -0.7990 c3        1 MOL     -0.072419
     43 C15        -7.6370   -0.2650   -1.3750 c         1 MOL      0.449549
     44 O9         -8.7070   -0.8120   -1.5880 o         1 MOL     -0.602868
     45 H17        -5.7470    2.1700   -0.4550 hn        1 MOL      0.051658
     46 H18        -8.5470    1.6900   -0.8790 h1        1 MOL      0.056789
     47 H19        -7.4770    1.0910    0.2800 h1        1 MOL      0.056789
     48 N5         -6.5050   -0.9210   -1.3940 n         1 MOL     -0.183013
     49 C16        -6.3340   -2.3180   -1.8470 c3        1 MOL     -0.031360
     50 C17        -6.2680   -3.3680   -0.7360 c         1 MOL      0.324040
     51 O10        -6.0120   -4.5840   -1.0030 o         1 MOL     -0.500763
     52 C18        -5.1280   -2.4060   -2.8860 c3        1 MOL     -0.057516
     53 C19        -3.6970   -2.4260   -2.3240 c         1 MOL      0.296799
     54 N6         -2.7160   -2.4350   -3.2040 n         1 MOL     -0.609849
     55 O11        -3.4240   -2.2910   -1.1200 o         1 MOL     -0.095565
     56 H20        -5.6690   -0.4360   -1.1050 hn        1 MOL      0.259053
     57 H21        -7.1630   -2.6150   -2.4910 h1        1 MOL      0.112352
     58 H22        -5.2680   -1.5350   -3.5250 hc        1 MOL      0.036115
     59 H23        -5.3190   -3.2780   -3.5090 hc        1 MOL      0.036115
     60 H24        -2.8650   -2.4040   -4.2020 hn        1 MOL      0.332599
     61 H25        -1.7810   -2.4000   -2.8300 hn        1 MOL      0.332599
     62 N7         -6.3270   -2.9340    0.5400 n         1 MOL     -0.155568
     63 C20        -6.3350   -3.9220    1.6170 c3        1 MOL     -0.193362
     64 C21        -4.9220   -4.3870    2.0680 c         1 MOL      0.523206
     65 O12        -4.8360   -5.1040    3.1350 o         1 MOL     -0.594167
     66 H26        -6.4940   -1.9630    0.7720 hn        1 MOL      0.179333
     67 H27        -6.9660   -4.7210    1.2430 h1        1 MOL      0.106542
     68 H28        -6.8190   -3.5060    2.4970 h1        1 MOL      0.106542
     69 N8         -3.8100   -4.0510    1.3520 n         1 MOL     -0.155716
     70 C22        -2.4700   -4.4080    1.7390 c3        1 MOL     -0.138876
     71 C23        -1.4420   -3.2510    1.8230 c         1 MOL      0.502452
     72 O13        -1.5030   -2.2620    1.1000 o         1 MOL     -0.599288
     73 C24        -1.9110   -5.5060    0.8480 c3        1 MOL      0.779946
     74 C25        -2.3560   -6.9620    1.1320 c3        1 MOL     -0.583902
     75 O14        -2.0140   -5.2250   -0.5110 oh        1 MOL     -0.680081
     76 H29        -3.9110   -3.4820    0.5220 hn        1 MOL     -0.018420
     77 H30        -2.3720   -4.9190    2.6980 h1        1 MOL      0.038264
     78 H31        -0.8480   -5.5340    1.0460 h1        1 MOL     -0.117476
     79 H32        -1.7350   -4.3230   -0.7040 ho        1 MOL      0.383997
     80 H33        -1.5270   -7.5330    0.7290 hc        1 MOL      0.135083
     81 H34        -2.6070   -7.2050    2.1710 hc        1 MOL      0.135083
     82 H35        -3.2120   -7.1670    0.4920 hc        1 MOL      0.135083
     83 N9         -0.3470   -3.5000    2.5440 n         1 MOL     -0.407198
     84 C26         0.8580   -2.7120    2.2370 c3        1 MOL      0.059664
     85 C27         1.5730   -3.1180    0.9240 c         1 MOL      0.487962
     86 O15         1.6460   -4.2440    0.6060 o         1 MOL     -0.542850
     87 C28         1.8120   -2.7670    3.4400 c3        1 MOL     -0.034053
     88 C29         1.3760   -1.7060    4.3860 c3        1 MOL      0.381307
     89 C30         3.3390   -2.6030    3.1580 c3        1 MOL     -0.010973
     90 C31         2.1260   -1.7620    5.7160 c3        1 MOL     -0.232256
     91 H36        -0.2660   -4.3310    3.1130 hn        1 MOL      0.256189
     92 H37         0.5390   -1.6950    2.0000 h1        1 MOL      0.012451
     93 H38         1.7590   -3.7560    3.8960 hc        1 MOL      0.007794
     94 H39         0.3110   -1.8700    4.5510 hc        1 MOL     -0.112632
     95 H40         1.4670   -0.7280    3.9130 hc        1 MOL     -0.112632
     96 H41         3.4340   -1.5840    2.7700 hc        1 MOL     -0.017047
     97 H42         3.9410   -2.7150    4.0530 hc        1 MOL     -0.017047
     98 H43         3.7360   -3.3300    2.4620 hc        1 MOL     -0.017047
     99 H44         1.6360   -0.9960    6.3110 hc        1 MOL      0.036430
    100 H45         2.0580   -2.7600    6.1500 hc        1 MOL      0.036430
    101 H46         3.1300   -1.3780    5.5540 hc        1 MOL      0.036430
    102 N10         1.9610   -2.0490    0.1630 n         1 MOL     -0.197110
    103 C32         2.7310   -2.1730   -1.0340 c3        1 MOL     -0.007911
    104 C33         4.1260   -1.4640   -0.7820 c         1 MOL      0.477677
    105 O16         4.3560   -0.6970    0.1840 o         1 MOL     -0.448262
    106 C34         2.0160   -1.5540   -2.3070 c3        1 MOL     -0.236812
    107 C35         0.4610   -1.8740   -2.4890 c         1 MOL      0.693374
    108 O17        -0.3660   -1.3830   -1.6520 o         1 MOL     -0.676722
    109 O18         0.0050   -2.5320   -3.4790 o         1 MOL     -0.676722
    110 H47         1.7850   -1.1500    0.5750 hn        1 MOL      0.291432
    111 H48         2.9390   -3.2250   -1.1920 h1        1 MOL      0.064255
    112 H49         2.5830   -1.7540   -3.2190 hc        1 MOL      0.053367
    113 H50         2.0750   -0.4690   -2.2480 hc        1 MOL      0.053367
    114 N11         5.0600   -1.6930   -1.7760 n         1 MOL     -0.593690
    115 C36         6.4680   -1.4720   -1.5730 c3        1 MOL      0.316460
    116 C37         6.8130   -0.0080   -1.2380 c         1 MOL      0.469785
    117 O19         7.5110    0.1730   -0.2750 o         1 MOL     -0.499403
    118 C38         7.2970   -1.8210   -2.7600 c3        1 MOL     -0.243616
    119 C39         8.8040   -1.8620   -2.4500 ca        1 MOL     -0.018213
    120 C40         9.3740   -3.0310   -1.9360 ca        1 MOL     -0.059464
    121 C41         9.5580   -0.6800   -2.5630 ca        1 MOL     -0.059464
    122 C42        10.7070   -3.0080   -1.4830 ca        1 MOL     -0.205463
    123 C43        10.9310   -0.6590   -2.2320 ca        1 MOL     -0.205463
    124 C44        11.4480   -1.8090   -1.5780 ca        1 MOL     -0.024567
    125 H51         4.7130   -2.2300   -2.5490 hn        1 MOL      0.314358
    126 H52         6.6930   -1.9880   -0.6390 h1        1 MOL      0.027279
    127 H53         7.1600   -1.1330   -3.5950 hc        1 MOL      0.078802
    128 H54         6.9990   -2.7980   -3.1550 hc        1 MOL      0.078802
    129 H55         8.8320   -3.9620   -2.0040 ha        1 MOL      0.097655
    130 H56         9.2530    0.2030   -3.1220 ha        1 MOL      0.097655
    131 H57        11.1080   -3.8530   -0.9560 ha        1 MOL      0.134660
    132 H58        11.5660    0.2060   -2.3970 ha        1 MOL      0.134660
    133 H59        12.4630   -1.7770   -1.2080 ha        1 MOL      0.079056
    134 N12         6.1640    1.0200   -1.9070 n         1 MOL     -0.085380
    135 C45         6.4600    2.3600   -1.5130 c3        1 MOL     -0.070857
    136 C46         5.8990    2.7860   -0.1630 c         1 MOL      0.250444
    137 O20         6.5230    3.6120    0.5510 o         1 MOL     -0.500624
    138 C47         5.8910    3.2010   -2.5930 c3        1 MOL      0.140269
    139 C48         5.7850    2.3290   -3.8210 c3        1 MOL      0.059123
    140 C49         5.4590    0.9940   -3.1940 c3        1 MOL     -0.186051
    141 H60         7.5470    2.4990   -1.5730 h1        1 MOL      0.075201
    142 H61         4.8850    3.4670   -2.2740 hc        1 MOL     -0.020210
    143 H62         6.4500    4.0730   -2.9280 hc        1 MOL     -0.020210
    144 H63         5.0650    2.7070   -4.5560 hc        1 MOL      0.002981
    145 H64         6.7660    2.3290   -4.2960 hc        1 MOL      0.002981
    146 H65         4.3930    0.8980   -2.9510 h1        1 MOL      0.080587
    147 H66         5.7580    0.2420   -3.9160 h1        1 MOL      0.080587
    148 N13         4.8320    2.1260    0.3310 n         1 MOL      0.001569
    149 C50         4.1790    2.4910    1.6060 c3        1 MOL     -0.191190
    150 C51         5.0170    1.9390    2.8170 c         1 MOL      0.356196
    151 O21         5.0240    2.6020    3.9060 o         1 MOL     -0.527779
    152 C52         2.7290    1.8520    1.6430 c3        1 MOL     -0.027016
    153 C53         1.7970    2.2400    0.4730 c3        1 MOL     -0.204483
    154 C54         0.4640    1.5370    0.5550 c         1 MOL      0.705872
    155 O22        -0.5340    2.0350   -0.0440 o         1 MOL     -0.716793
    156 O23         0.2830    0.4180    1.0400 o         1 MOL     -0.716793
    157 H67         4.4190    1.3380   -0.1470 hn        1 MOL      0.148729
    158 H68         4.1260    3.5680    1.7110 h1        1 MOL      0.158195
    159 H69         2.2720    1.9790    2.6260 hc        1 MOL      0.059100
    160 H70         2.7420    0.7890    1.3870 hc        1 MOL      0.059100
    161 H71         2.2380    2.0090   -0.4890 hc        1 MOL      0.070120
    162 H72         1.6370    3.3140    0.4500 hc        1 MOL      0.070120
    163 N14         5.7930    0.8630    2.5740 n         1 MOL      0.048555
    164 C55         6.6930    0.3510    3.4990 c3        1 MOL     -0.280178
    165 H73         6.4920    0.7830    4.4790 h1        1 MOL      0.087500
    166 H74         6.5840   -0.7320    3.5510 h1        1 MOL      0.087500
    167 H75         7.7100    0.5990    3.1940 h1        1 MOL      0.087500
    168 H76         5.8870    0.4370    1.6650 hn        1 MOL      0.120764
    169 Ca1        -1.9980   -0.0680   -0.1840 Ca        1 MOL      1.542036
    170 O24        -2.0970    0.2470    2.6910 oh        1 MOL     -0.729048
    171 H77        -1.1530    0.0930    2.6370 ho        1 MOL      0.367506
    172 H78        -2.2600    0.4170    3.6150 ho        1 MOL      0.367506
    173 O25        -4.5360   -0.4180    0.7470 oh        1 MOL     -0.729048
    174 H79        -4.9010   -0.5710    1.6200 ho        1 MOL      0.367506
    175 H80        -4.7870    0.4780    0.5300 ho        1 MOL      0.367506
@<TRIPOS>BOND
     1    1    2 1   
     2    1    4 1   
     3    1    5 1   
     4    1    6 1   
     5    2    3 2   
     6    2    7 1   
     7    7    8 1   
     8    7   15 1   
     9    8    9 1   
    10    8   11 1   
    11    8   16 1   
    12    9   10 2   
    13    9   19 1   
    14   11   12 1   
    15   11   17 1   
    16   11   18 1   
    17   12   13 1   
    18   12   14 1   
    19   19   20 1   
    20   19   24 1   
    21   20   21 1   
    22   20   23 1   
    23   20   25 1   
    24   21   22 2   
    25   21   29 1   
    26   23   26 1   
    27   23   27 1   
    28   23   28 1   
    29   29   30 1   
    30   29   37 1   
    31   30   31 1   
    32   30   33 1   
    33   30   38 1   
    34   31   32 2   
    35   31   41 1   
    36   33   34 1   
    37   33   39 1   
    38   33   40 1   
    39   34   35 1   
    40   34   36 1   
    41   41   42 1   
    42   41   45 1   
    43   42   43 1   
    44   42   46 1   
    45   42   47 1   
    46   43   44 2   
    47   43   48 1   
    48   48   49 1   
    49   48   56 1   
    50   49   50 1   
    51   49   52 1   
    52   49   57 1   
    53   50   51 2   
    54   50   62 1   
    55   52   53 1   
    56   52   58 1   
    57   52   59 1   
    58   53   54 1   
    59   53   55 2   
    60   54   60 1   
    61   54   61 1   
    62   62   63 1   
    63   62   66 1   
    64   63   64 1   
    65   63   67 1   
    66   63   68 1   
    67   64   65 2   
    68   64   69 1   
    69   69   70 1   
    70   69   76 1   
    71   70   71 1   
    72   70   73 1   
    73   70   77 1   
    74   71   72 2   
    75   71   83 1   
    76   73   74 1   
    77   73   75 1   
    78   73   78 1   
    79   74   80 1   
    80   74   81 1   
    81   74   82 1   
    82   75   79 1   
    83   83   84 1   
    84   83   91 1   
    85   84   85 1   
    86   84   87 1   
    87   84   92 1   
    88   85   86 2   
    89   85  102 1   
    90   87   88 1   
    91   87   89 1   
    92   87   93 1   
    93   88   90 1   
    94   88   94 1   
    95   88   95 1   
    96   89   96 1   
    97   89   97 1   
    98   89   98 1   
    99   90   99 1   
   100   90  100 1   
   101   90  101 1   
   102  102  103 1   
   103  102  110 1   
   104  103  104 1   
   105  103  106 1   
   106  103  111 1   
   107  104  105 2   
   108  104  114 1   
   109  106  107 1   
   110  106  112 1   
   111  106  113 1   
   112  107  108 1   
   113  107  109 1   
   114  114  115 1   
   115  114  125 1   
   116  115  116 1   
   117  115  118 1   
   118  115  126 1   
   119  116  117 2   
   120  116  134 1   
   121  118  119 1   
   122  118  127 1   
   123  118  128 1   
   124  119  120 ar  
   125  119  121 ar  
   126  120  122 ar  
   127  120  129 1   
   128  121  123 ar  
   129  121  130 1   
   130  122  124 ar  
   131  122  131 1   
   132  123  124 ar  
   133  123  132 1   
   134  124  133 1   
   135  134  135 1   
   136  134  140 1   
   137  135  136 1   
   138  135  138 1   
   139  135  141 1   
   140  136  137 2   
   141  136  148 1   
   142  138  139 1   
   143  138  142 1   
   144  138  143 1   
   145  139  140 1   
   146  139  144 1   
   147  139  145 1   
   148  140  146 1   
   149  140  147 1   
   150  148  149 1   
   151  148  157 1   
   152  149  150 1   
   153  149  152 1   
   154  149  158 1   
   155  150  151 2   
   156  150  163 1   
   157  152  153 1   
   158  152  159 1   
   159  152  160 1   
   160  153  154 1   
   161  153  161 1   
   162  153  162 1   
   163  154  155 1   
   164  154  156 1   
   165  163  164 1   
   166  163  168 1   
   167  164  165 1   
   168  164  166 1   
   169  164  167 1   
   170  170  171 1   
   171  170  172 1   
   172  173  174 1   
   173  173  175 1   
@<TRIPOS>SUBSTRUCTURE
     1 MOL         1 TEMP              0 ****  ****    0 ROOT
