@<TRIPOS>MOLECULE
MOL
  175   173     1     0     0
SMALL
resp


@<TRIPOS>ATOM
      1 C1          0.3290    2.9870    5.5820 c3        1 MOL     -0.487517
      2 C2         -0.1690    2.7080    4.1640 c         1 MOL      0.680840
      3 O1          0.3410    3.2670    3.2190 o         1 MOL     -0.556434
      4 H1         -0.1750    2.3190    6.2800 hc        1 MOL      0.124092
      5 H2          1.4040    2.8170    5.6300 hc        1 MOL      0.124092
      6 H3          0.1110    4.0210    5.8470 hc        1 MOL      0.124092
      7 N1         -1.3520    2.0630    4.0440 n         1 MOL     -0.565410
      8 C3         -2.0560    1.9250    2.7100 c3        1 MOL      0.375607
      9 C4         -2.7100    3.1680    2.0570 c         1 MOL      0.219313
     10 O2         -3.8950    3.4320    2.2600 o         1 MOL     -0.483672
     11 C5         -3.0880    0.8050    2.9760 c3        1 MOL     -0.261775
     12 C6         -3.8710    0.4780    1.7410 c         1 MOL      0.703086
     13 O3         -3.2910    0.6010    0.6100 o         1 MOL     -0.664427
     14 O4         -4.9820   -0.0360    1.9460 o         1 MOL     -0.664427
     15 H4         -1.7410    1.5320    4.8060 hn        1 MOL      0.291122
     16 H5         -1.3370    1.5610    1.9660 h1        1 MOL     -0.044734
     17 H6         -3.7470    1.1830    3.7590 hc        1 MOL      0.047841
     18 H7         -2.5870   -0.1190    3.2720 hc        1 MOL      0.047841
     19 N2         -1.9560    3.8670    1.2560 n         1 MOL     -0.160456
     20 C7         -2.3110    5.2380    0.9040 c3        1 MOL      0.226179
     21 C8         -3.3690    5.4010   -0.1740 c         1 MOL      0.320944
     22 O5         -3.7340    6.5100   -0.4410 o         1 MOL     -0.547175
     23 C9         -0.9910    5.8920    0.6210 c3        1 MOL     -0.183431
     24 H8         -0.9980    3.5350    1.1960 hn        1 MOL      0.265177
     25 H9         -2.6180    5.7930    1.7850 h1        1 MOL      0.017467
     26 H10        -0.4350    5.3300   -0.1310 hc        1 MOL      0.039326
     27 H11        -1.1150    6.9230    0.2800 hc        1 MOL      0.039326
     28 H12        -0.4010    5.9220    1.5340 hc        1 MOL      0.039326
     29 N3         -3.6340    4.2880   -0.8540 n         1 MOL     -0.064299
     30 C10        -4.7520    4.1640   -1.8230 c3        1 MOL      0.091119
     31 C11        -5.9440    3.2820   -1.3270 c         1 MOL      0.365811
     32 O6         -6.9910    3.1680   -1.9220 o         1 MOL     -0.543888
     33 C12        -4.2900    3.6290   -3.2100 c3        1 MOL     -0.269759
     34 C13        -3.6730    2.2360   -3.2240 c         1 MOL      0.855940
     35 O7         -3.3450    1.7380   -4.3100 o         1 MOL     -0.733390
     36 O8         -3.3330    1.6620   -2.1780 o         1 MOL     -0.733390
     37 H13        -3.0560    3.4630   -0.7140 hn        1 MOL      0.080352
     38 H14        -5.2270    5.1130   -2.0580 h1        1 MOL      0.065665
     39 H15        -3.4330    4.2400   -3.5070 hc        1 MOL      0.050796
     40 H16        -5.0400    3.6020   -4.0020 hc        1 MOL      0.050796
     41 N4         -5.8160    2.7990   -0.1020 n         1 MOL     -0.109997
     42 C14        -6.9120    2.1720    0.6740 c3        1 MOL     -0.024328
     43 C15        -7.3680    0.8650   -0.0060 c         1 MOL      0.508214
     44 O9         -8.5270    0.5680    0.1810 o         1 MOL     -0.609274
     45 H17        -4.9420    2.9660    0.3780 hn        1 MOL      0.025113
     46 H18        -7.7490    2.8480    0.8620 h1        1 MOL      0.066628
     47 H19        -6.5330    1.8720    1.6520 h1        1 MOL      0.066628
     48 N5         -6.4780    0.0020   -0.5680 n         1 MOL     -0.143568
     49 C16        -6.9040   -1.2040   -1.2950 c3        1 MOL     -0.125209
     50 C17        -6.8890   -2.4770   -0.4380 c         1 MOL      0.419673
     51 O10        -6.9500   -3.5750   -0.9450 o         1 MOL     -0.531776
     52 C18        -6.0770   -1.2830   -2.5790 c3        1 MOL     -0.081675
     53 C19        -4.7750   -1.8830   -2.3120 c         1 MOL      0.391227
     54 N6         -4.4160   -2.6930   -3.2400 n         1 MOL     -0.680645
     55 O11        -4.0450   -1.6630   -1.3000 o         1 MOL     -0.321166
     56 H20        -5.4920    0.1130   -0.3790 hn        1 MOL      0.057548
     57 H21        -7.9580   -1.0270   -1.4990 h1        1 MOL      0.116736
     58 H22        -5.9060   -0.2510   -2.9050 hc        1 MOL      0.062348
     59 H23        -6.6280   -1.8250   -3.3440 hc        1 MOL      0.062348
     60 H24        -5.0460   -2.9440   -3.9910 hn        1 MOL      0.341972
     61 H25        -3.5770   -3.2210   -3.0680 hn        1 MOL      0.341972
     62 N7         -6.7480   -2.2980    0.8380 n         1 MOL     -0.197940
     63 C20        -6.5960   -3.3940    1.7920 c3        1 MOL     -0.399590
     64 C21        -5.2700   -4.0820    1.8640 c         1 MOL      0.734027
     65 O12        -5.1570   -5.1030    2.5280 o         1 MOL     -0.611663
     66 H26        -6.6170   -1.3510    1.1540 hn        1 MOL      0.282329
     67 H27        -7.2200   -4.2270    1.4560 h1        1 MOL      0.148947
     68 H28        -6.8340   -2.9840    2.7770 h1        1 MOL      0.148947
     69 N8         -4.2170   -3.4810    1.3090 n         1 MOL     -0.555278
     70 C22        -2.9840   -4.2300    0.9980 c3        1 MOL      0.020169
     71 C23        -1.8140   -3.2380    1.0810 c         1 MOL      0.545584
     72 O13        -2.0350   -2.0390    0.7590 o         1 MOL     -0.555447
     73 C24        -3.0350   -5.0050   -0.3390 c3        1 MOL      0.502773
     74 C25        -1.8840   -6.0570   -0.5090 c3        1 MOL     -0.448588
     75 O14        -4.2380   -5.7210   -0.4210 oh        1 MOL     -0.618234
     76 H29        -4.2540   -2.5320    0.9770 hn        1 MOL      0.387714
     77 H30        -2.8430   -5.0030    1.7530 h1        1 MOL      0.068971
     78 H31        -3.0670   -4.3390   -1.1920 h1        1 MOL     -0.036430
     79 H32        -4.3520   -6.1450   -1.2780 ho        1 MOL      0.376030
     80 H33        -1.9010   -6.3780   -1.5570 hc        1 MOL      0.095058
     81 H34        -0.9480   -5.5840   -0.2250 hc        1 MOL      0.095058
     82 H35        -2.0140   -6.8480    0.2170 hc        1 MOL      0.095058
     83 N9         -0.6070   -3.6020    1.4890 n         1 MOL     -0.635995
     84 C26         0.6980   -2.8210    1.4120 c3        1 MOL      0.071833
     85 C27         1.3520   -2.9720    0.0370 c         1 MOL      0.445745
     86 O15         1.4200   -4.0370   -0.4850 o         1 MOL     -0.556092
     87 C28         1.6280   -3.1800    2.6020 c3        1 MOL      0.171854
     88 C29         0.8480   -2.7260    3.8550 c3        1 MOL      0.072042
     89 C30         3.0410   -2.5370    2.4960 c3        1 MOL     -0.190103
     90 C31         1.6770   -2.8180    5.2190 c3        1 MOL     -0.207028
     91 H36        -0.6170   -4.5440    1.8390 hn        1 MOL      0.324220
     92 H37         0.4290   -1.7720    1.4990 h1        1 MOL      0.185989
     93 H38         1.7150   -4.2600    2.7410 hc        1 MOL     -0.020473
     94 H39         0.0790   -3.4900    3.9550 hc        1 MOL     -0.004818
     95 H40         0.4640   -1.7120    3.7270 hc        1 MOL     -0.004818
     96 H41         2.9330   -1.4580    2.4800 hc        1 MOL      0.034000
     97 H42         3.6390   -2.7580    3.3910 hc        1 MOL      0.034000
     98 H43         3.5850   -2.9300    1.6370 hc        1 MOL      0.034000
     99 H44         2.3720   -1.9730    5.3280 hc        1 MOL      0.041061
    100 H45         0.9400   -2.7690    6.0180 hc        1 MOL      0.041061
    101 H46         2.1920   -3.7590    5.4430 hc        1 MOL      0.041061
    102 N10         1.8960   -1.8810   -0.5030 n         1 MOL     -0.003534
    103 C32         2.9920   -1.8200   -1.5430 c3        1 MOL      0.019871
    104 C33         4.3770   -1.4670   -1.0040 c         1 MOL      0.490595
    105 O16         4.5310   -1.0860    0.1590 o         1 MOL     -0.380397
    106 C34         2.6490   -0.6680   -2.6060 c3        1 MOL     -0.334214
    107 C35         1.2870   -1.0210   -3.2290 c         1 MOL      0.729068
    108 O17         1.1560   -1.9520   -4.0650 o         1 MOL     -0.681479
    109 O18         0.3670   -0.2300   -2.8720 o         1 MOL     -0.681479
    110 H47         1.6800   -1.0540    0.0390 hn        1 MOL     -0.233768
    111 H48         3.0990   -2.7670   -2.0650 h1        1 MOL      0.083170
    112 H49         3.3910   -0.6730   -3.4090 hc        1 MOL      0.107841
    113 H50         2.7090    0.3220   -2.1460 hc        1 MOL      0.107841
    114 N11         5.4750   -1.3920   -1.7780 n         1 MOL     -0.664795
    115 C36         6.8400   -1.1210   -1.3190 c3        1 MOL      0.389196
    116 C37         6.9780    0.3940   -0.9560 c         1 MOL      0.160339
    117 O19         7.6480    0.5940    0.1070 o         1 MOL     -0.456369
    118 C38         7.9450   -1.6900   -2.2140 c3        1 MOL     -0.084352
    119 C39         9.3640   -1.6450   -1.5710 ca        1 MOL     -0.035077
    120 C40        10.2460   -0.5350   -1.8630 ca        1 MOL     -0.138073
    121 C41         9.6970   -2.4360   -0.4810 ca        1 MOL     -0.138073
    122 C42        11.4490   -0.3890   -1.1450 ca        1 MOL     -0.053241
    123 C43        10.8440   -2.2820    0.2580 ca        1 MOL     -0.053241
    124 C44        11.7660   -1.2890   -0.0830 ca        1 MOL     -0.171622
    125 H51         5.4140   -1.5500   -2.7790 hn        1 MOL      0.304121
    126 H52         6.9650   -1.5980   -0.3460 h1        1 MOL      0.039267
    127 H53         7.8260   -1.1090   -3.1270 hc        1 MOL      0.036308
    128 H54         7.6940   -2.7330   -2.4070 hc        1 MOL      0.036308
    129 H55        10.1000    0.1750   -2.6660 ha        1 MOL      0.111893
    130 H56         9.0290   -3.2610   -0.2530 ha        1 MOL      0.111893
    131 H57        12.1210    0.4230   -1.3550 ha        1 MOL      0.092601
    132 H58        11.0250   -3.1060    0.9380 ha        1 MOL      0.092601
    133 H59        12.6720   -1.1450    0.4960 ha        1 MOL      0.116357
    134 N12         6.4160    1.3480   -1.6790 n         1 MOL      0.087129
    135 C45         6.5150    2.6990   -1.1140 c3        1 MOL     -0.087490
    136 C46         5.7350    2.9310    0.2330 c         1 MOL      0.277885
    137 O20         6.0180    3.8940    0.9690 o         1 MOL     -0.481841
    138 C47         6.0200    3.6400   -2.2700 c3        1 MOL      0.006557
    139 C48         5.3560    2.7920   -3.3390 c3        1 MOL     -0.067183
    140 C49         5.9090    1.3800   -3.0760 c3        1 MOL      0.105009
    141 H60         7.5670    2.9480   -1.0110 h1        1 MOL      0.084801
    142 H61         5.2520    4.3470   -1.9320 hc        1 MOL      0.024250
    143 H62         6.7760    4.2520   -2.7600 hc        1 MOL      0.024250
    144 H63         4.2730    2.8050   -3.2210 hc        1 MOL      0.042735
    145 H64         5.6790    3.0440   -4.3430 hc        1 MOL      0.042735
    146 H65         5.1490    0.6160   -3.2800 h1        1 MOL     -0.027438
    147 H66         6.8210    1.2680   -3.6570 h1        1 MOL     -0.027438
    148 N13         4.7620    2.0240    0.5460 n         1 MOL     -0.052638
    149 C50         4.0430    1.9830    1.7910 c3        1 MOL     -0.118197
    150 C51         4.7250    1.0690    2.8580 c         1 MOL      0.459267
    151 O21         4.6730    1.4220    4.0310 o         1 MOL     -0.554712
    152 C52         2.6340    1.4820    1.3990 c3        1 MOL     -0.058200
    153 C53         1.8570    2.2930    0.2600 c3        1 MOL     -0.213331
    154 C54         0.5060    1.6110    0.0500 c         1 MOL      0.712229
    155 O22        -0.2550    2.2730   -0.6220 o         1 MOL     -0.721252
    156 O23         0.1920    0.4260    0.2810 o         1 MOL     -0.721252
    157 H67         4.5140    1.4170   -0.2170 hn        1 MOL      0.145874
    158 H68         3.8970    2.9530    2.2540 h1        1 MOL      0.118041
    159 H69         1.9500    1.4210    2.2410 hc        1 MOL      0.082803
    160 H70         2.6690    0.4470    1.0740 hc        1 MOL      0.082803
    161 H71         2.4020    2.3230   -0.6870 hc        1 MOL      0.079129
    162 H72         1.7200    3.2470    0.7550 hc        1 MOL      0.079129
    163 N14         5.4490   -0.0420    2.5420 n         1 MOL     -0.076483
    164 C55         6.3900   -0.6430    3.5080 c3        1 MOL     -0.094268
    165 H73         7.4100   -0.3690    3.2400 h1        1 MOL      0.044279
    166 H74         6.1670   -0.2760    4.5100 h1        1 MOL      0.044279
    167 H75         6.2890   -1.7290    3.4880 h1        1 MOL      0.044279
    168 H76         5.3870   -0.4550    1.6180 hn        1 MOL      0.100744
    169 Ca1        -1.6970    0.0220   -1.2210 Ca        1 MOL      1.755547
    170 O24        -0.9150   -2.6470   -2.1750 oh        1 MOL     -0.824787
    171 H77        -0.6020   -2.1710   -2.9460 ho        1 MOL      0.379554
    172 H78        -0.1540   -3.1410   -1.8760 ho        1 MOL      0.379554
    173 O25        -2.2300   -0.4970   -3.8640 oh        1 MOL     -0.824787
    174 H79        -2.6850    0.2610   -4.2320 ho        1 MOL      0.379554
    175 H80        -2.2850   -1.1710   -4.5370 ho        1 MOL      0.379554
@<TRIPOS>BOND
     1    1    2 1   
     2    1    4 1   
     3    1    5 1   
     4    1    6 1   
     5    2    3 2   
     6    2    7 1   
     7    7    8 1   
     8    7   15 1   
     9    8    9 1   
    10    8   11 1   
    11    8   16 1   
    12    9   10 2   
    13    9   19 1   
    14   11   12 1   
    15   11   17 1   
    16   11   18 1   
    17   12   13 1   
    18   12   14 1   
    19   19   20 1   
    20   19   24 1   
    21   20   21 1   
    22   20   23 1   
    23   20   25 1   
    24   21   22 2   
    25   21   29 1   
    26   23   26 1   
    27   23   27 1   
    28   23   28 1   
    29   29   30 1   
    30   29   37 1   
    31   30   31 1   
    32   30   33 1   
    33   30   38 1   
    34   31   32 2   
    35   31   41 1   
    36   33   34 1   
    37   33   39 1   
    38   33   40 1   
    39   34   35 1   
    40   34   36 1   
    41   41   42 1   
    42   41   45 1   
    43   42   43 1   
    44   42   46 1   
    45   42   47 1   
    46   43   44 2   
    47   43   48 1   
    48   48   49 1   
    49   48   56 1   
    50   49   50 1   
    51   49   52 1   
    52   49   57 1   
    53   50   51 2   
    54   50   62 1   
    55   52   53 1   
    56   52   58 1   
    57   52   59 1   
    58   53   54 1   
    59   53   55 2   
    60   54   60 1   
    61   54   61 1   
    62   62   63 1   
    63   62   66 1   
    64   63   64 1   
    65   63   67 1   
    66   63   68 1   
    67   64   65 2   
    68   64   69 1   
    69   69   70 1   
    70   69   76 1   
    71   70   71 1   
    72   70   73 1   
    73   70   77 1   
    74   71   72 2   
    75   71   83 1   
    76   73   74 1   
    77   73   75 1   
    78   73   78 1   
    79   74   80 1   
    80   74   81 1   
    81   74   82 1   
    82   75   79 1   
    83   83   84 1   
    84   83   91 1   
    85   84   85 1   
    86   84   87 1   
    87   84   92 1   
    88   85   86 2   
    89   85  102 1   
    90   87   88 1   
    91   87   89 1   
    92   87   93 1   
    93   88   90 1   
    94   88   94 1   
    95   88   95 1   
    96   89   96 1   
    97   89   97 1   
    98   89   98 1   
    99   90   99 1   
   100   90  100 1   
   101   90  101 1   
   102  102  103 1   
   103  102  110 1   
   104  103  104 1   
   105  103  106 1   
   106  103  111 1   
   107  104  105 2   
   108  104  114 1   
   109  106  107 1   
   110  106  112 1   
   111  106  113 1   
   112  107  108 1   
   113  107  109 1   
   114  114  115 1   
   115  114  125 1   
   116  115  116 1   
   117  115  118 1   
   118  115  126 1   
   119  116  117 2   
   120  116  134 1   
   121  118  119 1   
   122  118  127 1   
   123  118  128 1   
   124  119  120 ar  
   125  119  121 ar  
   126  120  122 ar  
   127  120  129 1   
   128  121  123 ar  
   129  121  130 1   
   130  122  124 ar  
   131  122  131 1   
   132  123  124 ar  
   133  123  132 1   
   134  124  133 1   
   135  134  135 1   
   136  134  140 1   
   137  135  136 1   
   138  135  138 1   
   139  135  141 1   
   140  136  137 2   
   141  136  148 1   
   142  138  139 1   
   143  138  142 1   
   144  138  143 1   
   145  139  140 1   
   146  139  144 1   
   147  139  145 1   
   148  140  146 1   
   149  140  147 1   
   150  148  149 1   
   151  148  157 1   
   152  149  150 1   
   153  149  152 1   
   154  149  158 1   
   155  150  151 2   
   156  150  163 1   
   157  152  153 1   
   158  152  159 1   
   159  152  160 1   
   160  153  154 1   
   161  153  161 1   
   162  153  162 1   
   163  154  155 1   
   164  154  156 1   
   165  163  164 1   
   166  163  168 1   
   167  164  165 1   
   168  164  166 1   
   169  164  167 1   
   170  170  171 1   
   171  170  172 1   
   172  173  174 1   
   173  173  175 1   
@<TRIPOS>SUBSTRUCTURE
     1 MOL         1 TEMP              0 ****  ****    0 ROOT
