@<TRIPOS>MOLECULE
MOL
  175   173     1     0     0
SMALL
resp


@<TRIPOS>ATOM
      1 C1          0.0050    5.3390    4.9670 c3        1 MOL     -0.299722
      2 C2         -0.5190    4.9110    3.5610 c         1 MOL      0.787280
      3 O1          0.1960    5.0670    2.6220 o         1 MOL     -0.575119
      4 H1         -0.2770    6.3740    5.1600 hc        1 MOL      0.060891
      5 H2         -0.4330    4.6950    5.7300 hc        1 MOL      0.060891
      6 H3          1.0910    5.2480    4.9940 hc        1 MOL      0.060891
      7 N1         -1.7440    4.4590    3.4780 n         1 MOL     -0.654512
      8 C3         -2.3300    3.9980    2.2340 c3        1 MOL      0.015743
      9 C4         -2.6730    5.0460    1.1610 c         1 MOL      0.574664
     10 O2         -3.2210    6.0960    1.5100 o         1 MOL     -0.546869
     11 C5         -3.6440    3.3350    2.6370 c3        1 MOL     -0.094670
     12 C6         -4.3260    2.6720    1.3860 c         1 MOL      0.545320
     13 O3         -5.4550    3.0840    1.1070 o         1 MOL     -0.594532
     14 O4         -3.6080    1.9200    0.6460 o         1 MOL     -0.594532
     15 H4         -2.3710    4.5860    4.2480 hn        1 MOL      0.337330
     16 H5         -1.6430    3.2820    1.7890 h1        1 MOL      0.087291
     17 H6         -4.3480    4.0050    3.1250 hc        1 MOL      0.005575
     18 H7         -3.4750    2.5320    3.3480 hc        1 MOL      0.005575
     19 N2         -2.4300    4.6460   -0.0860 n         1 MOL     -0.448304
     20 C7         -2.9820    5.4450   -1.1660 c3        1 MOL      0.334007
     21 C8         -3.5930    4.5870   -2.2810 c         1 MOL      0.578903
     22 O5         -3.4830    4.9060   -3.4370 o         1 MOL     -0.575604
     23 C9         -1.8920    6.4000   -1.5930 c3        1 MOL     -0.354363
     24 H8         -1.9390    3.7790   -0.2640 hn        1 MOL      0.284052
     25 H9         -3.8010    6.0670   -0.7810 h1        1 MOL     -0.006899
     26 H10        -1.3550    5.8530   -2.3580 hc        1 MOL      0.074531
     27 H11        -2.2970    7.2520   -2.1590 hc        1 MOL      0.074531
     28 H12        -1.2990    6.8270   -0.7850 hc        1 MOL      0.074531
     29 N3         -4.2450    3.5080   -1.9130 n         1 MOL     -0.458739
     30 C10        -5.0490    2.7460   -2.9250 c3        1 MOL      0.123633
     31 C11        -6.2410    1.8930   -2.4210 c         1 MOL      0.378909
     32 O6         -7.0950    1.5620   -3.2210 o         1 MOL     -0.538893
     33 C12        -4.2200    1.8870   -3.9030 c3        1 MOL     -0.238638
     34 C13        -3.3290    0.9480   -3.2040 c         1 MOL      0.779448
     35 O7         -3.6390    0.5060   -2.0550 o         1 MOL     -0.682635
     36 O8         -2.2690    0.6660   -3.6930 o         1 MOL     -0.682635
     37 H13        -4.1480    3.0720   -1.0090 hn        1 MOL      0.169716
     38 H14        -5.6310    3.5170   -3.4310 h1        1 MOL      0.051363
     39 H15        -3.6650    2.6150   -4.4990 hc        1 MOL      0.055999
     40 H16        -4.8920    1.3310   -4.5510 hc        1 MOL      0.055999
     41 N4         -6.3080    1.7150   -1.0920 n         1 MOL     -0.127618
     42 C14        -7.3340    0.9560   -0.4540 c3        1 MOL     -0.178377
     43 C15        -7.2650   -0.5500   -0.8510 c         1 MOL      0.460121
     44 O9         -8.2470   -1.2730   -0.7630 o         1 MOL     -0.609087
     45 H17        -5.4880    1.9970   -0.5760 hn        1 MOL      0.134136
     46 H18        -8.3380    1.3550   -0.6360 h1        1 MOL      0.103656
     47 H19        -7.1170    1.1680    0.5910 h1        1 MOL      0.103656
     48 N5         -6.1280   -1.1230   -1.3070 n         1 MOL     -0.028386
     49 C16        -6.0080   -2.4670   -1.8810 c3        1 MOL     -0.100348
     50 C17        -5.9970   -3.6230   -0.8830 c         1 MOL      0.435053
     51 O10        -5.6390   -4.7430   -1.2370 o         1 MOL     -0.492780
     52 C18        -4.8640   -2.5470   -2.8830 c3        1 MOL     -0.079776
     53 C19        -3.4080   -2.6080   -2.3050 c         1 MOL      0.617778
     54 N6         -2.4060   -2.9520   -3.0750 n         1 MOL     -0.660005
     55 O11        -3.2790   -2.2720   -1.1640 o         1 MOL     -0.549100
     56 H20        -5.2670   -0.6000   -1.2460 hn        1 MOL      0.063804
     57 H21        -6.9500   -2.6130   -2.4050 h1        1 MOL      0.114676
     58 H22        -5.0310   -1.6790   -3.5280 hc        1 MOL      0.035286
     59 H23        -4.9750   -3.4040   -3.5470 hc        1 MOL      0.035286
     60 H24        -2.4770   -3.0960   -4.0690 hn        1 MOL      0.344662
     61 H25        -1.4900   -2.9480   -2.6560 hn        1 MOL      0.344662
     62 N7         -6.2850   -3.2650    0.3970 n         1 MOL     -0.200177
     63 C20        -6.3040   -4.0720    1.6450 c3        1 MOL     -0.299590
     64 C21        -4.8360   -4.5530    2.1020 c         1 MOL      0.489293
     65 O12        -4.7660   -5.2330    3.1070 o         1 MOL     -0.566454
     66 H26        -6.6260   -2.3220    0.5500 hn        1 MOL      0.222869
     67 H27        -7.0350   -4.8490    1.3970 h1        1 MOL      0.146275
     68 H28        -6.7040   -3.5310    2.5060 h1        1 MOL      0.146275
     69 N8         -3.7330   -4.0730    1.4920 n         1 MOL      0.053063
     70 C22        -2.3890   -4.4320    1.8430 c3        1 MOL     -0.221914
     71 C23        -1.3810   -3.2860    1.7820 c         1 MOL      0.499130
     72 O13        -1.3880   -2.4060    0.9270 o         1 MOL     -0.524272
     73 C24        -1.9400   -5.4400    0.7990 c3        1 MOL      0.662177
     74 C25        -2.6500   -6.7810    0.8840 c3        1 MOL     -0.492072
     75 O14        -2.0030   -4.9380   -0.5030 oh        1 MOL     -0.599629
     76 H29        -3.9440   -3.3940    0.7850 hn        1 MOL     -0.141835
     77 H30        -2.3250   -4.8800    2.8330 h1        1 MOL      0.070536
     78 H31        -0.8820   -5.5480    1.0130 h1        1 MOL     -0.102289
     79 H32        -2.3130   -4.0360   -0.3650 ho        1 MOL      0.333539
     80 H33        -2.7510   -7.1080    1.9170 hc        1 MOL      0.111733
     81 H34        -3.5940   -6.6870    0.3500 hc        1 MOL      0.111733
     82 H35        -1.9540   -7.4850    0.4300 hc        1 MOL      0.111733
     83 N9         -0.3880   -3.4880    2.6480 n         1 MOL     -0.498064
     84 C26         0.8290   -2.5830    2.5890 c3        1 MOL     -0.050547
     85 C27         1.6710   -3.0660    1.4090 c         1 MOL      0.696359
     86 O15         2.3140   -4.0950    1.3750 o         1 MOL     -0.594951
     87 C28         1.5620   -2.5550    3.9850 c3        1 MOL     -0.059188
     88 C29         0.9300   -1.4600    4.9540 c3        1 MOL      0.003819
     89 C30         3.0690   -2.1990    3.8560 c3        1 MOL     -0.152858
     90 C31         1.0600    0.0270    4.6400 c3        1 MOL     -0.388610
     91 H36        -0.4490   -4.2980    3.2480 hn        1 MOL      0.312153
     92 H37         0.5090   -1.5530    2.4170 h1        1 MOL      0.267419
     93 H38         1.4600   -3.5280    4.4610 hc        1 MOL      0.049537
     94 H39         1.2630   -1.6740    5.9770 hc        1 MOL      0.013008
     95 H40        -0.1480   -1.6310    4.9430 hc        1 MOL      0.013008
     96 H41         3.2130   -1.6920    2.9060 hc        1 MOL      0.038819
     97 H42         3.5640   -1.6490    4.6620 hc        1 MOL      0.038819
     98 H43         3.6930   -3.0900    3.7910 hc        1 MOL      0.038819
     99 H44         0.4210    0.5810    5.3300 hc        1 MOL      0.098178
    100 H45         2.0420    0.3990    4.9290 hc        1 MOL      0.098178
    101 H46         0.7270    0.2140    3.6250 hc        1 MOL      0.098178
    102 N10         1.7180   -2.1140    0.4460 n         1 MOL     -0.283711
    103 C32         2.7060   -2.0950   -0.6870 c3        1 MOL     -0.103973
    104 C33         4.0810   -1.5670   -0.3330 c         1 MOL      0.398861
    105 O16         4.2650   -0.6780    0.5080 o         1 MOL     -0.252599
    106 C34         2.1760   -1.1910   -1.8390 c3        1 MOL     -0.251864
    107 C35         0.8220   -1.6940   -2.4050 c         1 MOL      0.777446
    108 O17         0.9770   -2.3630   -3.4870 o         1 MOL     -0.695073
    109 O18        -0.2350   -1.3050   -1.9000 o         1 MOL     -0.695073
    110 H47         1.1140   -1.3040    0.4880 hn        1 MOL      0.070371
    111 H48         2.7570   -3.0960   -1.0970 h1        1 MOL      0.092903
    112 H49         2.9750   -1.2140   -2.5860 hc        1 MOL      0.082686
    113 H50         2.0150   -0.1870   -1.4370 hc        1 MOL      0.082686
    114 N11         5.1350   -1.9910   -1.0510 n         1 MOL     -0.454446
    115 C36         6.4720   -1.6030   -0.8200 c3        1 MOL      0.271456
    116 C37         6.8070   -0.1450   -0.9180 c         1 MOL      0.333977
    117 O19         7.4650    0.3180    0.0100 o         1 MOL     -0.461695
    118 C38         7.3770   -2.5090   -1.7360 c3        1 MOL     -0.408469
    119 C39         8.8800   -2.1530   -1.5930 ca        1 MOL      0.299119
    120 C40         9.5000   -1.5380   -2.7430 ca        1 MOL     -0.342874
    121 C41         9.5960   -2.4200   -0.4430 ca        1 MOL     -0.342874
    122 C42        10.8130   -1.0880   -2.5500 ca        1 MOL      0.059801
    123 C43        10.9170   -2.0090   -0.3050 ca        1 MOL      0.059801
    124 C44        11.5610   -1.4180   -1.3670 ca        1 MOL     -0.289197
    125 H51         5.0570   -2.7710   -1.6800 hn        1 MOL      0.294403
    126 H52         6.6470   -1.8960    0.2160 h1        1 MOL      0.045493
    127 H53         7.1540   -2.5890   -2.8090 hc        1 MOL      0.117509
    128 H54         7.3080   -3.5290   -1.3700 hc        1 MOL      0.117509
    129 H55         8.9710   -1.4100   -3.6750 ha        1 MOL      0.161552
    130 H56         9.1070   -2.9250    0.3800 ha        1 MOL      0.161552
    131 H57        11.3170   -0.5810   -3.3670 ha        1 MOL      0.077902
    132 H58        11.3210   -2.1660    0.6820 ha        1 MOL      0.077902
    133 H59        12.5600   -1.0200   -1.2350 ha        1 MOL      0.133737
    134 N12         6.3360    0.6470   -1.9780 n         1 MOL     -0.133586
    135 C45         6.4790    2.1250   -1.8300 c3        1 MOL      0.115911
    136 C46         5.8060    2.7320   -0.6150 c         1 MOL      0.268991
    137 O20         6.1920    3.8490   -0.2510 o         1 MOL     -0.519052
    138 C47         5.9840    2.6400   -3.1720 c3        1 MOL     -0.079164
    139 C48         6.0420    1.4040   -4.1210 c3        1 MOL     -0.058525
    140 C49         5.8610    0.2270   -3.2630 c3        1 MOL     -0.008557
    141 H60         7.5490    2.3450   -1.7070 h1        1 MOL      0.045483
    142 H61         4.9500    2.9740   -3.1500 hc        1 MOL      0.049945
    143 H62         6.6200    3.4640   -3.4760 hc        1 MOL      0.049945
    144 H63         5.2110    1.5690   -4.8200 hc        1 MOL      0.031167
    145 H64         6.9500    1.4030   -4.7280 hc        1 MOL      0.031167
    146 H65         4.8290   -0.1200   -3.3450 h1        1 MOL      0.043752
    147 H66         6.4070   -0.6200   -3.6720 h1        1 MOL      0.043752
    148 N13         4.8520    2.0710   -0.0000 n         1 MOL     -0.072954
    149 C50         4.1020    2.6570    1.1490 c3        1 MOL     -0.128502
    150 C51         4.8980    2.3290    2.4140 c         1 MOL      0.511123
    151 O21         4.8760    3.1600    3.3170 o         1 MOL     -0.560546
    152 C52         2.7180    1.9830    1.2960 c3        1 MOL      0.123862
    153 C53         1.7200    2.3630    0.2140 c3        1 MOL     -0.144721
    154 C54         0.4610    1.5460    0.1960 c         1 MOL      0.580751
    155 O22        -0.5250    1.9760   -0.4240 o         1 MOL     -0.668611
    156 O23         0.1600    0.5130    0.9480 o         1 MOL     -0.668611
    157 H67         4.5710    1.1460   -0.3170 hn        1 MOL      0.074296
    158 H68         3.9520    3.7340    1.0530 h1        1 MOL      0.117670
    159 H69         2.4300    2.3950    2.2650 hc        1 MOL     -0.025467
    160 H70         2.8750    0.9090    1.3260 hc        1 MOL     -0.025467
    161 H71         2.1920    2.2120   -0.7530 hc        1 MOL      0.081220
    162 H72         1.4730    3.4250    0.1940 hc        1 MOL      0.081220
    163 N14         5.5190    1.1590    2.4020 n         1 MOL     -0.119272
    164 C55         6.3420    0.7750    3.5270 c3        1 MOL     -0.263282
    165 H73         6.1850    1.4760    4.3470 h1        1 MOL      0.097004
    166 H74         6.0700   -0.2290    3.8520 h1        1 MOL      0.097004
    167 H75         7.3920    0.7910    3.2330 h1        1 MOL      0.097004
    168 H76         5.3870    0.4450    1.7000 hn        1 MOL      0.109714
    169 Ca1        -2.1100   -0.1340   -0.2160 Ca        1 MOL      1.668607
    170 O24        -4.1360   -0.9350    1.4040 oh        1 MOL     -0.801547
    171 H77        -4.9500   -1.2280    1.8150 ho        1 MOL      0.398775
    172 H78        -3.6800   -0.4530    2.0830 ho        1 MOL      0.398775
    173 O25        -1.9160    0.2260    2.5380 oh        1 MOL     -0.801547
    174 H79        -1.0610    0.5410    2.2500 ho        1 MOL      0.398775
    175 H80        -2.0040    0.5380    3.4350 ho        1 MOL      0.398775
@<TRIPOS>BOND
     1    1    2 1   
     2    1    4 1   
     3    1    5 1   
     4    1    6 1   
     5    2    3 2   
     6    2    7 1   
     7    7    8 1   
     8    7   15 1   
     9    8    9 1   
    10    8   11 1   
    11    8   16 1   
    12    9   10 2   
    13    9   19 1   
    14   11   12 1   
    15   11   17 1   
    16   11   18 1   
    17   12   13 1   
    18   12   14 1   
    19   19   20 1   
    20   19   24 1   
    21   20   21 1   
    22   20   23 1   
    23   20   25 1   
    24   21   22 2   
    25   21   29 1   
    26   23   26 1   
    27   23   27 1   
    28   23   28 1   
    29   29   30 1   
    30   29   37 1   
    31   30   31 1   
    32   30   33 1   
    33   30   38 1   
    34   31   32 2   
    35   31   41 1   
    36   33   34 1   
    37   33   39 1   
    38   33   40 1   
    39   34   35 1   
    40   34   36 1   
    41   41   42 1   
    42   41   45 1   
    43   42   43 1   
    44   42   46 1   
    45   42   47 1   
    46   43   44 2   
    47   43   48 1   
    48   48   49 1   
    49   48   56 1   
    50   49   50 1   
    51   49   52 1   
    52   49   57 1   
    53   50   51 2   
    54   50   62 1   
    55   52   53 1   
    56   52   58 1   
    57   52   59 1   
    58   53   54 1   
    59   53   55 2   
    60   54   60 1   
    61   54   61 1   
    62   62   63 1   
    63   62   66 1   
    64   63   64 1   
    65   63   67 1   
    66   63   68 1   
    67   64   65 2   
    68   64   69 1   
    69   69   70 1   
    70   69   76 1   
    71   70   71 1   
    72   70   73 1   
    73   70   77 1   
    74   71   72 2   
    75   71   83 1   
    76   73   74 1   
    77   73   75 1   
    78   73   78 1   
    79   74   80 1   
    80   74   81 1   
    81   74   82 1   
    82   75   79 1   
    83   83   84 1   
    84   83   91 1   
    85   84   85 1   
    86   84   87 1   
    87   84   92 1   
    88   85   86 2   
    89   85  102 1   
    90   87   88 1   
    91   87   89 1   
    92   87   93 1   
    93   88   90 1   
    94   88   94 1   
    95   88   95 1   
    96   89   96 1   
    97   89   97 1   
    98   89   98 1   
    99   90   99 1   
   100   90  100 1   
   101   90  101 1   
   102  102  103 1   
   103  102  110 1   
   104  103  104 1   
   105  103  106 1   
   106  103  111 1   
   107  104  105 2   
   108  104  114 1   
   109  106  107 1   
   110  106  112 1   
   111  106  113 1   
   112  107  108 1   
   113  107  109 1   
   114  114  115 1   
   115  114  125 1   
   116  115  116 1   
   117  115  118 1   
   118  115  126 1   
   119  116  117 2   
   120  116  134 1   
   121  118  119 1   
   122  118  127 1   
   123  118  128 1   
   124  119  120 ar  
   125  119  121 ar  
   126  120  122 ar  
   127  120  129 1   
   128  121  123 ar  
   129  121  130 1   
   130  122  124 ar  
   131  122  131 1   
   132  123  124 ar  
   133  123  132 1   
   134  124  133 1   
   135  134  135 1   
   136  134  140 1   
   137  135  136 1   
   138  135  138 1   
   139  135  141 1   
   140  136  137 2   
   141  136  148 1   
   142  138  139 1   
   143  138  142 1   
   144  138  143 1   
   145  139  140 1   
   146  139  144 1   
   147  139  145 1   
   148  140  146 1   
   149  140  147 1   
   150  148  149 1   
   151  148  157 1   
   152  149  150 1   
   153  149  152 1   
   154  149  158 1   
   155  150  151 2   
   156  150  163 1   
   157  152  153 1   
   158  152  159 1   
   159  152  160 1   
   160  153  154 1   
   161  153  161 1   
   162  153  162 1   
   163  154  155 1   
   164  154  156 1   
   165  163  164 1   
   166  163  168 1   
   167  164  165 1   
   168  164  166 1   
   169  164  167 1   
   170  170  171 1   
   171  170  172 1   
   172  173  174 1   
   173  173  175 1   
@<TRIPOS>SUBSTRUCTURE
     1 MOL         1 TEMP              0 ****  ****    0 ROOT
