@<TRIPOS>MOLECULE
MOL
  189   185     1     0     0
SMALL
resp


@<TRIPOS>ATOM
      1 C1          0.1970   -4.7140    5.7610 c3        1 MOL     -0.378726
      2 C2          0.6690   -4.1390    4.4300 c         1 MOL      0.792061
      3 O1          0.7920   -2.8770    4.3780 o         1 MOL     -0.657513
      4 H1         -0.6540   -5.3740    5.5900 hc        1 MOL      0.095196
      5 H2          1.0070   -5.2790    6.2210 hc        1 MOL      0.095196
      6 H3         -0.1020   -3.9010    6.4230 hc        1 MOL      0.095196
      7 N1          1.0080   -4.9120    3.4160 n         1 MOL     -0.687659
      8 C3          1.6230   -4.4460    2.1520 c3        1 MOL      0.577379
      9 C4          1.1840   -5.1320    0.8940 c         1 MOL      0.354201
     10 O2          1.0660   -6.3790    0.9900 o         1 MOL     -0.608609
     11 C5          3.0880   -4.3700    2.3620 c3        1 MOL     -0.377654
     12 C6          3.9060   -3.8120    1.3160 c         1 MOL      0.747978
     13 O3          5.0420   -4.3880    1.1600 o         1 MOL     -0.670260
     14 O4          3.4480   -2.9230    0.5880 o         1 MOL     -0.670260
     15 H4          0.8690   -5.9110    3.5390 hn        1 MOL      0.312184
     16 H5          1.1790   -3.4770    1.9430 h1        1 MOL     -0.165516
     17 H6          3.4080   -5.3810    2.6390 hc        1 MOL      0.064529
     18 H7          3.1860   -3.8240    3.2980 hc        1 MOL      0.064529
     19 N2          1.0860   -4.4650   -0.2400 n         1 MOL     -0.059149
     20 C7          0.7520   -5.0520   -1.5110 c3        1 MOL      0.019387
     21 C8          1.9670   -5.0140   -2.4200 c         1 MOL      0.457572
     22 O5          2.2120   -5.9350   -3.1780 o         1 MOL     -0.571974
     23 C9         -0.4450   -4.2220   -1.9570 c3        1 MOL      0.041259
     24 C10        -1.7680   -4.7340   -1.2400 c3        1 MOL      0.120069
     25 C11        -0.5580   -4.4260   -3.5060 c3        1 MOL     -0.250640
     26 C12        -2.9870   -3.8400   -1.6110 c3        1 MOL     -0.454769
     27 H8          1.2220   -3.4790   -0.1140 hn        1 MOL      0.170318
     28 H9          0.4570   -6.1010   -1.5100 h1        1 MOL      0.066440
     29 H10        -0.3190   -3.1510   -1.7920 hc        1 MOL      0.130160
     30 H11        -1.5050   -4.7970   -0.1880 hc        1 MOL     -0.026433
     31 H12        -1.8170   -5.8010   -1.4690 hc        1 MOL     -0.026433
     32 H13         0.3680   -4.1560   -4.0090 hc        1 MOL      0.047391
     33 H14        -0.9260   -5.4240   -3.7190 hc        1 MOL      0.047391
     34 H15        -1.3380   -3.8000   -3.9410 hc        1 MOL      0.047391
     35 H16        -3.2320   -4.2490   -2.5860 hc        1 MOL      0.118765
     36 H17        -3.9180   -4.1470   -1.1290 hc        1 MOL      0.118765
     37 H18        -2.7800   -2.7660   -1.5510 hc        1 MOL      0.118765
     38 N3          2.8610   -3.9980   -2.3400 n         1 MOL     -0.160445
     39 C13         3.6440   -3.5500   -3.4510 c3        1 MOL      0.013491
     40 C14         5.0830   -3.1400   -3.1310 c         1 MOL      0.320104
     41 O6          5.9820   -2.8390   -3.9920 o         1 MOL     -0.554093
     42 C15         2.8970   -2.4270   -4.1850 c3        1 MOL     -0.125513
     43 C16         2.3130   -1.3560   -3.2670 c         1 MOL      0.781467
     44 O7          2.7020   -1.1150   -2.0890 o         1 MOL     -0.741545
     45 O8          1.4000   -0.6060   -3.7670 o         1 MOL     -0.741545
     46 H19         2.6380   -3.3590   -1.5880 hn        1 MOL      0.023483
     47 H20         3.7250   -4.3680   -4.1700 h1        1 MOL      0.093071
     48 H21         2.1690   -2.7780   -4.9120 hc        1 MOL      0.039673
     49 H22         3.6330   -1.9620   -4.8400 hc        1 MOL      0.039673
     50 N4          5.4540   -2.9740   -1.8180 n         1 MOL     -0.037443
     51 C17         6.8610   -2.6900   -1.3840 c3        1 MOL     -0.041706
     52 C18         7.4110   -1.2330   -1.6250 c         1 MOL      0.347943
     53 O9          8.6470   -1.1180   -1.6740 o         1 MOL     -0.585237
     54 H23         4.7270   -3.1760   -1.1470 hn        1 MOL     -0.005938
     55 H24         7.5060   -3.4590   -1.8200 h1        1 MOL      0.071635
     56 H25         6.9220   -2.9010   -0.3130 h1        1 MOL      0.071635
     57 N5          6.6180   -0.2280   -1.7000 n         1 MOL     -0.103412
     58 C19         7.0580    1.1500   -1.9790 c3        1 MOL      0.189264
     59 C20         7.4860    1.8800   -0.6520 c         1 MOL      0.423432
     60 O10         8.3730    2.7370   -0.6820 o         1 MOL     -0.561887
     61 C21         6.0100    1.9680   -2.6940 c3        1 MOL     -0.368715
     62 C22         4.6360    1.9120   -2.0140 c         1 MOL      0.848134
     63 O11         4.4120    1.1740   -1.0240 o         1 MOL     -0.681956
     64 O12         3.6870    2.4440   -2.5980 o         1 MOL     -0.681956
     65 H26         5.6260   -0.4050   -1.7180 hn        1 MOL      0.143060
     66 H27         7.9880    1.1920   -2.5480 h1        1 MOL      0.043682
     67 H28         5.9280    1.5560   -3.6950 hc        1 MOL      0.088386
     68 H29         6.3660    2.9940   -2.6890 hc        1 MOL      0.088386
     69 N6          6.9060    1.5540    0.4700 n         1 MOL     -0.323472
     70 C23         7.0630    2.4250    1.6880 c3        1 MOL     -0.054859
     71 C24         5.9290    3.3870    1.9350 c         1 MOL      0.479462
     72 O13         6.0550    4.2030    2.7960 o         1 MOL     -0.594223
     73 H30         6.0970    0.9490    0.4380 hn        1 MOL      0.162110
     74 H31         7.9260    3.0910    1.7240 h1        1 MOL      0.082970
     75 H32         7.1690    1.7490    2.5390 h1        1 MOL      0.082970
     76 N7          4.8630    3.2600    1.1910 n         1 MOL     -0.178934
     77 C25         3.6540    3.9730    1.3650 c3        1 MOL      0.108201
     78 C26         2.3970    3.0820    1.6000 c         1 MOL      0.254817
     79 O14         2.2640    1.9280    1.2720 o         1 MOL     -0.350469
     80 C27         3.4070    5.0790    0.2840 c3        1 MOL     -0.033645
     81 C28         4.5720    6.0880    0.1720 c3        1 MOL     -0.384739
     82 C29         4.2060    7.2290   -0.8520 c         1 MOL      0.720339
     83 N8          5.1430    8.0560   -1.2670 n         1 MOL     -0.828497
     84 O15         3.0690    7.5040   -1.2710 o         1 MOL     -0.566300
     85 H33         4.8510    2.4400    0.6050 hn        1 MOL      0.068285
     86 H34         3.8250    4.4890    2.3020 h1        1 MOL      0.009167
     87 H35         2.5200    5.6410    0.5720 hc        1 MOL      0.055360
     88 H36         3.2270    4.5760   -0.6680 hc        1 MOL      0.055360
     89 H37         5.4390    5.6520   -0.3140 hc        1 MOL      0.134036
     90 H38         4.8250    6.5810    1.1170 hc        1 MOL      0.134036
     91 H39         6.0820    7.9570   -0.9070 hn        1 MOL      0.358678
     92 H40         4.8760    8.7610   -1.9430 hn        1 MOL      0.358678
     93 N9          1.3750    3.6500    2.1380 n         1 MOL     -0.149338
     94 C30         0.0760    2.9940    2.5130 c3        1 MOL     -0.194366
     95 C31        -0.9990    3.3340    1.5220 c         1 MOL      0.425145
     96 O16        -1.3850    4.4600    1.2150 o         1 MOL     -0.594113
     97 C32        -0.2210    3.3450    4.0240 c3        1 MOL      0.382588
     98 C33        -1.6230    2.8040    4.4500 c3        1 MOL     -0.313969
     99 C34         0.8060    2.7600    4.9870 c3        1 MOL     -0.313969
    100 H41         1.4970    4.5580    2.5630 hn        1 MOL      0.213997
    101 H42         0.2060    1.9090    2.4230 h1        1 MOL      0.126656
    102 H43        -0.1350    4.4200    4.1780 hc        1 MOL     -0.052711
    103 H44        -2.3870    3.3650    3.9120 hc        1 MOL      0.060288
    104 H45        -1.5800    1.7500    4.1940 hc        1 MOL      0.060288
    105 H46        -1.8440    3.0260    5.4960 hc        1 MOL      0.060288
    106 H47         1.7660    3.1450    4.6630 hc        1 MOL      0.060288
    107 H48         0.4900    3.1360    5.9560 hc        1 MOL      0.060288
    108 H49         0.8340    1.6740    4.9090 hc        1 MOL      0.060288
    109 N10        -1.6760    2.3260    0.9720 n         1 MOL     -0.114190
    110 C35        -2.8030    2.5140    0.0010 c3        1 MOL      0.188915
    111 C36        -4.1380    2.3990    0.7510 c         1 MOL      0.297837
    112 O17        -4.1580    1.9570    1.8890 o         1 MOL     -0.407865
    113 C37        -2.5750    1.5440   -1.1620 c3        1 MOL     -0.256157
    114 C38        -3.6690    1.4980   -2.1880 c         1 MOL      0.749307
    115 N11        -3.9960    2.5920   -2.7590 n         1 MOL     -0.745240
    116 O18        -4.3390    0.5380   -2.3330 o         1 MOL     -0.571509
    117 H50        -1.3840    1.3810    1.1730 hn        1 MOL      0.113807
    118 H51        -2.9550    3.5040   -0.4280 h1        1 MOL      0.037525
    119 H52        -2.4070    0.5390   -0.7870 hc        1 MOL      0.092865
    120 H53        -1.7130    1.9290   -1.7090 hc        1 MOL      0.092865
    121 H54        -3.4940    3.4640   -2.7850 hn        1 MOL      0.328267
    122 H55        -4.9070    2.6910   -3.2010 hn        1 MOL      0.328267
    123 N12        -5.2650    2.6680    0.1190 n         1 MOL     -0.223321
    124 C39        -6.6040    2.2960    0.5960 c3        1 MOL      0.179869
    125 C40        -6.9250    0.8450    0.7540 c         1 MOL      0.445000
    126 O19        -7.4420    0.4710    1.7770 o         1 MOL     -0.602064
    127 C41        -7.5660    3.1020   -0.2660 c3        1 MOL     -0.272611
    128 C42        -7.2330    3.1380   -1.7260 ca        1 MOL      0.061927
    129 C43        -6.9680    4.3780   -2.3750 ca        1 MOL     -0.056932
    130 C44        -7.4010    1.9880   -2.5190 ca        1 MOL     -0.056932
    131 C45        -6.5880    4.4630   -3.7320 ca        1 MOL     -0.304089
    132 C46        -7.0410    2.0580   -3.8640 ca        1 MOL     -0.304089
    133 C47        -6.6540    3.2850   -4.5220 ca        1 MOL      0.358841
    134 O20        -6.3230    3.3460   -5.8760 oh        1 MOL     -0.556802
    135 H56        -5.3130    2.9750   -0.8460 hn        1 MOL      0.061359
    136 H57        -6.7050    2.7440    1.5850 h1        1 MOL      0.045251
    137 H58        -7.5360    4.1430    0.0760 hc        1 MOL      0.081135
    138 H59        -8.5340    2.6570   -0.0260 hc        1 MOL      0.081135
    139 H60        -7.1020    5.2930   -1.8130 ha        1 MOL      0.092716
    140 H61        -7.6060    1.0300   -2.0700 ha        1 MOL      0.092716
    141 H62        -6.3920    5.4130   -4.1890 ha        1 MOL      0.150329
    142 H63        -6.9850    1.1850   -4.4850 ha        1 MOL      0.150329
    143 H64        -6.3200    2.4620   -6.2600 ho        1 MOL      0.415523
    144 N13        -6.3310   -0.0570    0.0110 n         1 MOL      0.114191
    145 C48        -6.5130   -1.5420    0.1120 c3        1 MOL     -0.388752
    146 C49        -5.6500   -2.0700    1.2640 c         1 MOL      0.524716
    147 O21        -5.6540   -3.2940    1.6050 o         1 MOL     -0.564991
    148 C50        -6.0780   -2.2530   -1.1990 c3        1 MOL      0.138934
    149 C51        -6.9350   -1.9130   -2.4600 c3        1 MOL     -0.197075
    150 C52        -8.3770   -2.2490   -2.1990 c         1 MOL      0.723542
    151 O22        -9.1530   -1.4990   -2.7640 o         1 MOL     -0.732859
    152 O23        -8.7540   -3.1170   -1.4070 o         1 MOL     -0.732859
    153 H65        -5.8540    0.2130   -0.8360 hn        1 MOL      0.076852
    154 H66        -7.5410   -1.7700    0.3900 h1        1 MOL      0.210839
    155 H67        -6.1620   -3.3400   -1.0620 hc        1 MOL      0.013737
    156 H68        -5.0250   -2.0630   -1.3890 hc        1 MOL      0.013737
    157 H69        -6.5750   -2.4950   -3.3200 hc        1 MOL      0.021309
    158 H70        -6.7420   -0.8530   -2.5640 hc        1 MOL      0.021309
    159 N14        -4.7670   -1.2530    1.8030 n         1 MOL     -0.276077
    160 C53        -3.7780   -1.5970    2.8560 c3        1 MOL     -0.001457
    161 C54        -4.0590   -1.0140    4.2430 c         1 MOL      0.448886
    162 O24        -3.8330   -1.5130    5.2800 o         1 MOL     -0.545543
    163 C55        -2.3970   -1.1120    2.4870 c3        1 MOL     -0.076002
    164 C56        -1.6060   -1.7870    1.3170 c3        1 MOL     -0.043130
    165 C57        -0.3910   -1.1000    0.7480 c         1 MOL      0.813599
    166 O25         0.2810   -1.6470   -0.1380 o         1 MOL     -0.780967
    167 O26         0.0640   -0.0130    1.1310 o         1 MOL     -0.780967
    168 H71        -4.6960   -0.3240    1.4050 hn        1 MOL      0.116284
    169 H72        -3.6920   -2.6780    3.0040 h1        1 MOL      0.073270
    170 H73        -1.7740   -1.3040    3.3570 hc        1 MOL      0.055055
    171 H74        -2.5100   -0.0400    2.3150 hc        1 MOL      0.055055
    172 H75        -2.1870   -1.9900    0.4170 hc        1 MOL      0.028167
    173 H76        -1.4270   -2.7910    1.6920 hc        1 MOL      0.028167
    174 N15        -4.5950    0.2170    4.2530 n         1 MOL     -0.047739
    175 C58        -5.1140    0.9110    5.4070 c3        1 MOL     -0.212613
    176 H77        -5.9530    0.3500    5.8200 h1        1 MOL      0.074217
    177 H78        -4.3310    1.0000    6.1600 h1        1 MOL      0.074217
    178 H79        -5.4520    1.9040    5.1140 h1        1 MOL      0.074217
    179 H80        -4.6970    0.7220    3.3780 hn        1 MOL      0.091665
    180 Ca1         2.6840   -0.3950    0.4020 Ca        1 MOL      1.812410
    181 O27         2.2030   -0.9410    2.9180 oh        1 MOL     -0.952105
    182 H81         1.7940   -1.7020    3.3430 ho        1 MOL      0.447726
    183 H82         2.2360   -0.2720    3.6100 ho        1 MOL      0.447726
    184 O28         4.5880    0.0970    2.0690 oh        1 MOL     -0.952105
    185 H83         5.5150   -0.1400    2.1460 ho        1 MOL      0.447726
    186 H84         4.3650    0.4760    2.9190 ho        1 MOL      0.447726
    187 O29         1.5620    1.4900   -1.6890 oh        1 MOL     -0.952105
    188 H85         1.3660    0.8870   -2.4050 ho        1 MOL      0.447726
    189 H86         2.3720    1.9300   -1.9510 ho        1 MOL      0.447726
@<TRIPOS>BOND
     1    1    2 1   
     2    1    4 1   
     3    1    5 1   
     4    1    6 1   
     5    2    3 2   
     6    2    7 1   
     7    7    8 1   
     8    7   15 1   
     9    8    9 1   
    10    8   11 1   
    11    8   16 1   
    12    9   10 2   
    13    9   19 1   
    14   11   12 1   
    15   11   17 1   
    16   11   18 1   
    17   12   13 1   
    18   12   14 1   
    19   19   20 1   
    20   19   27 1   
    21   20   21 1   
    22   20   23 1   
    23   20   28 1   
    24   21   22 2   
    25   21   38 1   
    26   23   24 1   
    27   23   25 1   
    28   23   29 1   
    29   24   26 1   
    30   24   30 1   
    31   24   31 1   
    32   25   32 1   
    33   25   33 1   
    34   25   34 1   
    35   26   35 1   
    36   26   36 1   
    37   26   37 1   
    38   38   39 1   
    39   38   46 1   
    40   39   40 1   
    41   39   42 1   
    42   39   47 1   
    43   40   41 2   
    44   40   50 1   
    45   42   43 1   
    46   42   48 1   
    47   42   49 1   
    48   43   44 1   
    49   43   45 1   
    50   50   51 1   
    51   50   54 1   
    52   51   52 1   
    53   51   55 1   
    54   51   56 1   
    55   52   53 2   
    56   52   57 1   
    57   57   58 1   
    58   57   65 1   
    59   58   59 1   
    60   58   61 1   
    61   58   66 1   
    62   59   60 2   
    63   59   69 1   
    64   61   62 1   
    65   61   67 1   
    66   61   68 1   
    67   62   63 1   
    68   62   64 1   
    69   69   70 1   
    70   69   73 1   
    71   70   71 1   
    72   70   74 1   
    73   70   75 1   
    74   71   72 2   
    75   71   76 1   
    76   76   77 1   
    77   76   85 1   
    78   77   78 1   
    79   77   80 1   
    80   77   86 1   
    81   78   79 2   
    82   78   93 1   
    83   80   81 1   
    84   80   87 1   
    85   80   88 1   
    86   81   82 1   
    87   81   89 1   
    88   81   90 1   
    89   82   83 1   
    90   82   84 2   
    91   83   91 1   
    92   83   92 1   
    93   93   94 1   
    94   93  100 1   
    95   94   95 1   
    96   94   97 1   
    97   94  101 1   
    98   95   96 2   
    99   95  109 1   
   100   97   98 1   
   101   97   99 1   
   102   97  102 1   
   103   98  103 1   
   104   98  104 1   
   105   98  105 1   
   106   99  106 1   
   107   99  107 1   
   108   99  108 1   
   109  109  110 1   
   110  109  117 1   
   111  110  111 1   
   112  110  113 1   
   113  110  118 1   
   114  111  112 2   
   115  111  123 1   
   116  113  114 1   
   117  113  119 1   
   118  113  120 1   
   119  114  115 1   
   120  114  116 2   
   121  115  121 1   
   122  115  122 1   
   123  123  124 1   
   124  123  135 1   
   125  124  125 1   
   126  124  127 1   
   127  124  136 1   
   128  125  126 2   
   129  125  144 1   
   130  127  128 1   
   131  127  137 1   
   132  127  138 1   
   133  128  129 ar  
   134  128  130 ar  
   135  129  131 ar  
   136  129  139 1   
   137  130  132 ar  
   138  130  140 1   
   139  131  133 ar  
   140  131  141 1   
   141  132  133 ar  
   142  132  142 1   
   143  133  134 1   
   144  134  143 1   
   145  144  145 1   
   146  144  153 1   
   147  145  146 1   
   148  145  148 1   
   149  145  154 1   
   150  146  147 2   
   151  146  159 1   
   152  148  149 1   
   153  148  155 1   
   154  148  156 1   
   155  149  150 1   
   156  149  157 1   
   157  149  158 1   
   158  150  151 1   
   159  150  152 1   
   160  159  160 1   
   161  159  168 1   
   162  160  161 1   
   163  160  163 1   
   164  160  169 1   
   165  161  162 2   
   166  161  174 1   
   167  163  164 1   
   168  163  170 1   
   169  163  171 1   
   170  164  165 1   
   171  164  172 1   
   172  164  173 1   
   173  165  166 1   
   174  165  167 1   
   175  174  175 1   
   176  174  179 1   
   177  175  176 1   
   178  175  177 1   
   179  175  178 1   
   180  181  182 1   
   181  181  183 1   
   182  184  185 1   
   183  184  186 1   
   184  187  188 1   
   185  187  189 1   
@<TRIPOS>SUBSTRUCTURE
     1 MOL         1 TEMP              0 ****  ****    0 ROOT
