@<TRIPOS>MOLECULE
MOL
  169   169     1     0     0
SMALL
resp


@<TRIPOS>ATOM
      1 C1          0.5040    5.1510    5.2090 c3        1 MOL     -0.340302
      2 C2          0.1340    4.5870    3.8050 c         1 MOL      0.685622
      3 O1          0.7560    4.7990    2.7780 o         1 MOL     -0.556294
      4 H1         -0.4080    5.3880    5.7570 hc        1 MOL      0.077608
      5 H2          1.0750    4.4050    5.7620 hc        1 MOL      0.077608
      6 H3          1.1030    6.0540    5.0930 hc        1 MOL      0.077608
      7 N1         -1.0460    4.0390    3.7920 n         1 MOL     -0.537479
      8 C3         -1.7960    3.7130    2.5820 c3        1 MOL      0.097069
      9 C4         -2.3550    4.9050    1.6460 c         1 MOL      0.673547
     10 O2         -3.1020    5.7380    2.2440 o         1 MOL     -0.597249
     11 C5         -2.8630    2.6740    2.9340 c3        1 MOL     -0.462034
     12 C6         -3.3520    1.8450    1.7040 c         1 MOL      0.958019
     13 O3         -3.4040    0.5830    1.7780 o         1 MOL     -0.809109
     14 O4         -3.4610    2.3000    0.5230 o         1 MOL     -0.809109
     15 H4         -1.6540    3.9850    4.6030 hn        1 MOL      0.325366
     16 H5         -1.1560    3.0630    1.9880 h1        1 MOL      0.120949
     17 H6         -3.7290    3.1070    3.4210 hc        1 MOL      0.096373
     18 H7         -2.4970    2.0080    3.7260 hc        1 MOL      0.096373
     19 N2         -2.1830    4.7960    0.3180 n         1 MOL     -0.796117
     20 C7         -2.6230    5.8780   -0.5990 c3        1 MOL      0.503387
     21 C8         -3.7070    5.3680   -1.5390 c         1 MOL      0.395941
     22 O5         -4.1640    6.1800   -2.3220 o         1 MOL     -0.562921
     23 C9         -1.3190    6.3820   -1.3550 c3        1 MOL     -0.367502
     24 H8         -1.7390    3.9880   -0.0880 hn        1 MOL      0.400270
     25 H9         -3.0920    6.6990   -0.0590 h1        1 MOL     -0.020866
     26 H10        -0.5620    6.7000   -0.6390 hc        1 MOL      0.089970
     27 H11        -0.9300    5.6510   -2.0650 hc        1 MOL      0.089970
     28 H12        -1.6860    7.2130   -1.9540 hc        1 MOL      0.089970
     29 N3         -4.0350    4.0440   -1.5870 n         1 MOL     -0.376618
     30 C10        -4.9680    3.4140   -2.5320 c3        1 MOL      0.156981
     31 C11        -6.2870    2.7490   -1.9850 c         1 MOL      0.391962
     32 O6         -7.1740    2.4310   -2.7580 o         1 MOL     -0.548437
     33 C12        -4.1950    2.3990   -3.3680 c3        1 MOL     -0.297467
     34 C13        -3.4550    1.4270   -2.5300 c         1 MOL      0.755141
     35 O7         -2.2310    1.3050   -2.7120 o         1 MOL     -0.709807
     36 O8         -4.0440    0.7850   -1.6560 o         1 MOL     -0.709807
     37 H13        -3.5410    3.4490   -0.9340 hn        1 MOL      0.304834
     38 H14        -5.4230    4.2190   -3.1030 h1        1 MOL      0.057897
     39 H15        -3.4230    2.9450   -3.9170 hc        1 MOL      0.073525
     40 H16        -4.8190    1.8450   -4.0740 hc        1 MOL      0.073525
     41 N4         -6.3320    2.3010   -0.7580 n         1 MOL     -0.206098
     42 C14        -7.4290    1.5610   -0.0650 c3        1 MOL     -0.318359
     43 C15        -7.6010    0.0840   -0.5110 c         1 MOL      0.616146
     44 O9         -8.6330   -0.5380   -0.3530 o         1 MOL     -0.627613
     45 H17        -5.4610    2.4030   -0.2430 hn        1 MOL      0.175792
     46 H18        -8.3800    2.0660   -0.2260 h1        1 MOL      0.142152
     47 H19        -7.1810    1.5110    0.9950 h1        1 MOL      0.142152
     48 N5         -6.5620   -0.5640   -1.0940 n         1 MOL     -0.200615
     49 C16        -6.6510   -1.8670   -1.6820 c3        1 MOL     -0.072455
     50 C17        -6.7090   -3.0570   -0.7800 c         1 MOL      0.495570
     51 O10        -7.0000   -4.1400   -1.2800 o         1 MOL     -0.554742
     52 C18        -5.5220   -2.0000   -2.7740 c3        1 MOL     -0.160126
     53 C19        -4.1250   -2.0740   -2.2660 c         1 MOL      0.719987
     54 N6         -3.1720   -2.1660   -3.1570 n         1 MOL     -0.661785
     55 O11        -3.8050   -2.0600   -1.0430 o         1 MOL     -0.823316
     56 H20        -5.7020   -0.0470   -1.2310 hn        1 MOL      0.223270
     57 H21        -7.5830   -1.7990   -2.2490 h1        1 MOL      0.107199
     58 H22        -5.6410   -1.2420   -3.5540 hc        1 MOL      0.063097
     59 H23        -5.6510   -2.9690   -3.2420 hc        1 MOL      0.063097
     60 H24        -3.4840   -1.9600   -4.1020 hn        1 MOL      0.331942
     61 H25        -2.1970   -2.1100   -2.9000 hn        1 MOL      0.331942
     62 N7         -6.5860   -2.7800    0.4900 n         1 MOL     -0.114463
     63 C20        -6.6710   -3.8170    1.5530 c3        1 MOL     -0.420660
     64 C21        -5.2560   -4.3840    1.8500 c         1 MOL      0.630622
     65 O12        -5.0620   -5.2850    2.6540 o         1 MOL     -0.582683
     66 H26        -6.4630   -1.8230    0.7830 hn        1 MOL      0.215827
     67 H27        -7.3350   -4.6310    1.2630 h1        1 MOL      0.169374
     68 H28        -6.9010   -3.2700    2.4740 h1        1 MOL      0.169374
     69 N8         -4.2250   -3.9250    1.1320 n         1 MOL     -0.277659
     70 C22        -2.9070   -4.4880    1.1570 c3        1 MOL     -0.326497
     71 C23        -1.7820   -3.5040    1.3510 c         1 MOL      0.801221
     72 O13        -1.8780   -2.3570    1.0660 o         1 MOL     -0.609510
     73 C24        -2.6260   -5.4190   -0.0320 c3        1 MOL      0.487278
     74 C25        -3.5110   -6.6830    0.0740 c3        1 MOL     -0.484734
     75 O14        -3.0480   -4.7350   -1.1620 oh        1 MOL     -0.564124
     76 H29        -4.4880   -3.3300    0.3560 hn        1 MOL      0.231131
     77 H30        -2.7800   -5.0910    2.0520 h1        1 MOL      0.134433
     78 H31        -1.5560   -5.6240   -0.1320 h1        1 MOL     -0.017372
     79 H32        -3.2930   -3.8800   -0.7950 ho        1 MOL      0.374600
     80 H33        -3.3920   -7.0920    1.0800 hc        1 MOL      0.115769
     81 H34        -4.5800   -6.4830   -0.0060 hc        1 MOL      0.115769
     82 H35        -3.3430   -7.4640   -0.6610 hc        1 MOL      0.115769
     83 N9         -0.6680   -3.9860    1.9240 n         1 MOL     -0.682452
     84 C26         0.4590   -3.0770    1.9870 c3        1 MOL      0.193698
     85 C27         1.2200   -3.1630    0.6480 c         1 MOL      0.363372
     86 O15         1.3260   -4.2080    0.0230 o         1 MOL     -0.526059
     87 C28         1.4070   -3.3330    3.1740 c3        1 MOL      0.258859
     88 C29         0.5260   -3.3930    4.5080 c3        1 MOL      0.049494
     89 C30         2.6640   -2.4190    3.4240 c3        1 MOL     -0.248728
     90 C31         1.3020   -3.9730    5.6950 c3        1 MOL     -0.151616
     91 H36        -0.5890   -4.9290    2.2990 hn        1 MOL      0.310901
     92 H37         0.0610   -2.0670    2.0780 h1        1 MOL      0.048095
     93 H38         1.8360   -4.3240    2.9880 hc        1 MOL     -0.061111
     94 H39        -0.2940   -4.0590    4.2400 hc        1 MOL     -0.011348
     95 H40         0.0380   -2.4280    4.6410 hc        1 MOL     -0.011348
     96 H41         2.3870   -1.3640    3.5150 hc        1 MOL      0.052321
     97 H42         3.2620   -2.7370    4.2690 hc        1 MOL      0.052321
     98 H43         3.3540   -2.6600    2.6200 hc        1 MOL      0.052321
     99 H44         2.1090   -3.3410    6.0810 hc        1 MOL      0.023436
    100 H45         0.5410   -4.0920    6.4530 hc        1 MOL      0.023436
    101 H46         1.6580   -4.9930    5.5300 hc        1 MOL      0.023436
    102 N10         1.8070   -2.0250    0.1310 n         1 MOL     -0.337287
    103 C32         2.6300   -1.9370   -1.1590 c3        1 MOL      0.374593
    104 C33         4.1040   -1.6850   -0.8260 c         1 MOL      0.184073
    105 O16         4.3320   -1.1400    0.2530 o         1 MOL     -0.265820
    106 C34         1.9540   -0.9970   -2.2340 c3        1 MOL     -0.145572
    107 C35         0.5540   -1.3220   -2.6410 c         1 MOL      0.641213
    108 O17        -0.3250   -1.3960   -1.7470 o         1 MOL     -0.651692
    109 O18         0.2100   -1.5190   -3.8040 o         1 MOL     -0.651692
    110 H47         1.5430   -1.1520    0.5560 hn        1 MOL      0.154266
    111 H48         2.4440   -2.9080   -1.6110 h1        1 MOL     -0.010675
    112 H49         2.5690   -0.9770   -3.1430 hc        1 MOL      0.013061
    113 H50         1.9970   -0.0060   -1.7940 hc        1 MOL      0.013061
    114 N11         5.0340   -1.9300   -1.7500 n         1 MOL     -0.467261
    115 C36         6.4690   -1.6970   -1.4330 c3        1 MOL      0.255508
    116 C37         6.8610   -0.2300   -0.9730 c         1 MOL      0.241815
    117 O19         7.5560   -0.0820    0.0700 o         1 MOL     -0.473791
    118 C38         7.4200   -2.1920   -2.4770 c3        1 MOL     -0.107296
    119 C39         8.9140   -1.9640   -2.2090 ca        1 MOL      0.082116
    120 C40         9.5940   -2.7010   -1.2350 ca        1 MOL     -0.195944
    121 C41         9.5360   -0.9530   -2.9520 ca        1 MOL     -0.195944
    122 C42        10.9450   -2.4170   -0.9670 ca        1 MOL     -0.041697
    123 C43        10.9200   -0.8210   -2.8070 ca        1 MOL     -0.041697
    124 C44        11.5750   -1.4460   -1.7670 ca        1 MOL     -0.182266
    125 H51         4.7800   -2.1970   -2.6930 hn        1 MOL      0.286917
    126 H52         6.6160   -2.4200   -0.6240 h1        1 MOL      0.071832
    127 H53         7.2230   -1.7290   -3.4460 hc        1 MOL      0.023207
    128 H54         7.2050   -3.2530   -2.6140 hc        1 MOL      0.023207
    129 H55         9.0860   -3.4830   -0.6930 ha        1 MOL      0.131595
    130 H56         8.9400   -0.2640   -3.5260 ha        1 MOL      0.131595
    131 H57        11.5170   -2.9710   -0.2330 ha        1 MOL      0.091856
    132 H58        11.4130   -0.0660   -3.3940 ha        1 MOL      0.091856
    133 H59        12.5720   -1.1660   -1.4520 ha        1 MOL      0.116086
    134 N12         6.2670    0.8330   -1.5460 n         1 MOL      0.189470
    135 C45         6.5240    2.2530   -1.2070 c3        1 MOL     -0.115737
    136 C46         5.9960    2.5870    0.1560 c         1 MOL      0.309036
    137 O20         6.5650    3.3770    0.9360 o         1 MOL     -0.489490
    138 C47         5.9830    3.1410   -2.2630 c3        1 MOL      0.135719
    139 C48         5.9110    2.2000   -3.4860 c3        1 MOL     -0.211080
    140 C49         5.5360    0.8380   -2.7830 c3        1 MOL     -0.254607
    141 H60         7.6130    2.2820   -1.1830 h1        1 MOL      0.078215
    142 H61         4.9750    3.5250   -2.1050 hc        1 MOL      0.019031
    143 H62         6.6290    3.9940   -2.4670 hc        1 MOL      0.019031
    144 H63         5.0810    2.4220   -4.1550 hc        1 MOL      0.072171
    145 H64         6.8670    2.1010   -3.9930 hc        1 MOL      0.072171
    146 H65         4.4740    0.9190   -2.5740 h1        1 MOL      0.114887
    147 H66         5.8520   -0.1070   -3.2370 h1        1 MOL      0.114887
    148 N13         4.8380    2.0120    0.5430 n         1 MOL     -0.047687
    149 C50         4.0520    2.2650    1.7520 c3        1 MOL     -0.370181
    150 C51         4.9270    1.6310    2.8810 c         1 MOL      0.533811
    151 O21         5.1560    2.2000    3.9310 o         1 MOL     -0.578633
    152 C52         2.6300    1.6970    1.7160 c3        1 MOL      0.014696
    153 C53         1.8910    2.2740    0.5260 c3        1 MOL      0.076547
    154 C54         0.5390    1.6160    0.4030 c         1 MOL      0.681618
    155 O22        -0.2540    2.1200   -0.3790 o         1 MOL     -0.764707
    156 O23         0.2240    0.5290    0.9150 o         1 MOL     -0.764707
    157 H67         4.4510    1.2210    0.0610 hn        1 MOL      0.088068
    158 H68         3.9990    3.3540    1.8420 h1        1 MOL      0.169245
    159 H69         2.1060    2.0050    2.6220 hc        1 MOL      0.036887
    160 H70         2.6900    0.6090    1.7370 hc        1 MOL      0.036887
    161 H71         2.3180    2.1040   -0.4650 hc        1 MOL      0.014541
    162 H72         1.7570    3.3380    0.7300 hc        1 MOL      0.014541
    163 N14         5.4340    0.4270    2.6950 n         1 MOL      0.015977
    164 C55         6.3510   -0.3630    3.5810 c3        1 MOL     -0.218927
    165 H73         6.0850   -0.1880    4.6240 h1        1 MOL      0.086512
    166 H74         6.2520   -1.4240    3.3540 h1        1 MOL      0.086512
    167 H75         7.3810   -0.0490    3.4120 h1        1 MOL      0.086512
    168 H76         5.1830    0.0180    1.8000 hn        1 MOL     -0.053930
    169 Ca1        -2.0160   -0.1310   -0.4030 Ca        1 MOL      1.765362
@<TRIPOS>BOND
     1    1    2 1   
     2    1    4 1   
     3    1    5 1   
     4    1    6 1   
     5    2    3 2   
     6    2    7 1   
     7    7    8 1   
     8    7   15 1   
     9    8    9 1   
    10    8   11 1   
    11    8   16 1   
    12    9   10 2   
    13    9   19 1   
    14   11   12 1   
    15   11   17 1   
    16   11   18 1   
    17   12   13 1   
    18   12   14 1   
    19   19   20 1   
    20   19   24 1   
    21   20   21 1   
    22   20   23 1   
    23   20   25 1   
    24   21   22 2   
    25   21   29 1   
    26   23   26 1   
    27   23   27 1   
    28   23   28 1   
    29   29   30 1   
    30   29   37 1   
    31   30   31 1   
    32   30   33 1   
    33   30   38 1   
    34   31   32 2   
    35   31   41 1   
    36   33   34 1   
    37   33   39 1   
    38   33   40 1   
    39   34   35 1   
    40   34   36 1   
    41   41   42 1   
    42   41   45 1   
    43   42   43 1   
    44   42   46 1   
    45   42   47 1   
    46   43   44 2   
    47   43   48 1   
    48   48   49 1   
    49   48   56 1   
    50   49   50 1   
    51   49   52 1   
    52   49   57 1   
    53   50   51 2   
    54   50   62 1   
    55   52   53 1   
    56   52   58 1   
    57   52   59 1   
    58   53   54 1   
    59   53   55 2   
    60   54   60 1   
    61   54   61 1   
    62   62   63 1   
    63   62   66 1   
    64   63   64 1   
    65   63   67 1   
    66   63   68 1   
    67   64   65 2   
    68   64   69 1   
    69   69   70 1   
    70   69   76 1   
    71   70   71 1   
    72   70   73 1   
    73   70   77 1   
    74   71   72 2   
    75   71   83 1   
    76   73   74 1   
    77   73   75 1   
    78   73   78 1   
    79   74   80 1   
    80   74   81 1   
    81   74   82 1   
    82   75   79 1   
    83   83   84 1   
    84   83   91 1   
    85   84   85 1   
    86   84   87 1   
    87   84   92 1   
    88   85   86 2   
    89   85  102 1   
    90   87   88 1   
    91   87   89 1   
    92   87   93 1   
    93   88   90 1   
    94   88   94 1   
    95   88   95 1   
    96   89   96 1   
    97   89   97 1   
    98   89   98 1   
    99   90   99 1   
   100   90  100 1   
   101   90  101 1   
   102  102  103 1   
   103  102  110 1   
   104  103  104 1   
   105  103  106 1   
   106  103  111 1   
   107  104  105 2   
   108  104  114 1   
   109  106  107 1   
   110  106  112 1   
   111  106  113 1   
   112  107  108 1   
   113  107  109 1   
   114  114  115 1   
   115  114  125 1   
   116  115  116 1   
   117  115  118 1   
   118  115  126 1   
   119  116  117 2   
   120  116  134 1   
   121  118  119 1   
   122  118  127 1   
   123  118  128 1   
   124  119  120 ar  
   125  119  121 ar  
   126  120  122 ar  
   127  120  129 1   
   128  121  123 ar  
   129  121  130 1   
   130  122  124 ar  
   131  122  131 1   
   132  123  124 ar  
   133  123  132 1   
   134  124  133 1   
   135  134  135 1   
   136  134  140 1   
   137  135  136 1   
   138  135  138 1   
   139  135  141 1   
   140  136  137 2   
   141  136  148 1   
   142  138  139 1   
   143  138  142 1   
   144  138  143 1   
   145  139  140 1   
   146  139  144 1   
   147  139  145 1   
   148  140  146 1   
   149  140  147 1   
   150  148  149 1   
   151  148  157 1   
   152  149  150 1   
   153  149  152 1   
   154  149  158 1   
   155  150  151 2   
   156  150  163 1   
   157  152  153 1   
   158  152  159 1   
   159  152  160 1   
   160  153  154 1   
   161  153  161 1   
   162  153  162 1   
   163  154  155 1   
   164  154  156 1   
   165  163  164 1   
   166  163  168 1   
   167  164  165 1   
   168  164  166 1   
   169  164  167 1   
@<TRIPOS>SUBSTRUCTURE
     1 MOL         1 TEMP              0 ****  ****    0 ROOT
