@<TRIPOS>MOLECULE
MOL
  186   183     1     0     0
SMALL
resp


@<TRIPOS>ATOM
      1 C1         -0.0290   -2.0870    6.1960 c3        1 MOL     -0.326609
      2 C2          0.4590   -2.2010    4.7400 c         1 MOL      0.775417
      3 O1         -0.0600   -2.9600    3.9210 o         1 MOL     -0.596122
      4 H1         -1.0590   -1.7310    6.2070 hc        1 MOL      0.076589
      5 H2          0.0210   -3.0650    6.6740 hc        1 MOL      0.076589
      6 H3          0.6030   -1.3840    6.7380 hc        1 MOL      0.076589
      7 N1          1.5400   -1.5300    4.3650 n         1 MOL     -0.648237
      8 C3          2.2380   -1.6890    3.0490 c3        1 MOL      0.327550
      9 C4          2.4710   -3.1260    2.6760 c         1 MOL      0.468235
     10 O2          3.0460   -3.8970    3.4160 o         1 MOL     -0.601423
     11 C5          3.6200   -1.0150    3.1440 c3        1 MOL     -0.349160
     12 C6          4.3320   -0.7810    1.8140 c         1 MOL      0.918477
     13 O3          5.5820   -0.5390    1.8130 o         1 MOL     -0.786389
     14 O4          3.6780   -0.7240    0.7690 o         1 MOL     -0.786389
     15 H4          2.0420   -0.9610    5.0320 hn        1 MOL      0.306354
     16 H5          1.6810   -1.1750    2.2620 h1        1 MOL      0.009858
     17 H6          4.3200   -1.6090    3.7310 hc        1 MOL      0.060983
     18 H7          3.4650   -0.0070    3.5480 hc        1 MOL      0.060983
     19 N2          2.0340   -3.4980    1.4970 n         1 MOL     -0.086087
     20 C7          2.0130   -4.9030    0.9490 c3        1 MOL      0.072280
     21 C8          3.2200   -5.0930   -0.1260 c         1 MOL      0.285804
     22 O5          3.9500   -6.0760   -0.1750 o         1 MOL     -0.560252
     23 C9          0.6600   -5.1080    0.2710 c3        1 MOL      0.230230
     24 C10        -0.5420   -5.4100    1.2680 c3        1 MOL      0.051697
     25 C11         0.6110   -6.2060   -0.8050 c3        1 MOL     -0.235770
     26 C12        -0.2820   -6.5760    2.2950 c3        1 MOL     -0.308859
     27 H8          1.6920   -2.7120    0.9610 hn        1 MOL     -0.052434
     28 H9          2.1120   -5.6650    1.7170 h1        1 MOL      0.030839
     29 H10         0.4840   -4.2400   -0.3750 hc        1 MOL      0.035445
     30 H11        -1.4690   -5.5850    0.7260 hc        1 MOL      0.019933
     31 H12        -0.7590   -4.5350    1.8890 hc        1 MOL      0.019933
     32 H13         1.4060   -6.1990   -1.5400 hc        1 MOL      0.036368
     33 H14         0.5710   -7.2050   -0.3610 hc        1 MOL      0.036368
     34 H15        -0.3460   -6.1620   -1.3290 hc        1 MOL      0.036368
     35 H16         0.2340   -7.4340    1.8520 hc        1 MOL      0.067819
     36 H17         0.3220   -6.1540    3.0950 hc        1 MOL      0.067819
     37 H18        -1.2180   -6.9160    2.7320 hc        1 MOL      0.067819
     38 N3          3.3300   -4.1120   -1.0030 n         1 MOL     -0.110423
     39 C13         4.3340   -4.1050   -2.0740 c3        1 MOL      0.114008
     40 C14         5.6980   -3.4570   -1.6660 c         1 MOL      0.339058
     41 O6          6.6150   -3.5180   -2.5400 o         1 MOL     -0.531758
     42 C15         3.6860   -3.6700   -3.3810 c3        1 MOL     -0.198944
     43 C16         3.0810   -2.3070   -3.4290 c         1 MOL      0.755296
     44 O7          3.4350   -1.4540   -2.5600 o         1 MOL     -0.696826
     45 O8          2.1790   -2.0550   -4.3200 o         1 MOL     -0.696826
     46 H19         2.6770   -3.3610   -0.8310 hn        1 MOL      0.107516
     47 H20         4.6020   -5.1480   -2.2370 h1        1 MOL      0.075982
     48 H21         2.8790   -4.3840   -3.4680 hc        1 MOL      0.042238
     49 H22         4.4350   -3.9210   -4.1370 hc        1 MOL      0.042238
     50 N4          5.8840   -3.0780   -0.3910 n         1 MOL     -0.130521
     51 C17         7.1970   -2.6700    0.0470 c3        1 MOL     -0.359813
     52 C18         7.7160   -1.3480   -0.5080 c         1 MOL      0.637160
     53 O9          8.8920   -1.1310   -0.2960 o         1 MOL     -0.612853
     54 H23         5.1900   -3.3100    0.2990 hn        1 MOL      0.241967
     55 H24         7.8150   -3.5100   -0.2750 h1        1 MOL      0.142619
     56 H25         7.1770   -2.5490    1.1300 h1        1 MOL      0.142619
     57 N5          6.9590   -0.4000   -1.0810 n         1 MOL     -0.314036
     58 C19         7.3670    0.9540   -1.5680 c3        1 MOL      0.003472
     59 C20         7.3830    2.0610   -0.4030 c         1 MOL      0.391344
     60 O10         7.9630    3.1310   -0.4590 o         1 MOL     -0.563655
     61 C21         6.4470    1.4080   -2.7180 c3        1 MOL     -0.214077
     62 C22         4.9830    1.6370   -2.3620 c         1 MOL      0.726576
     63 O11         4.2060    1.6580   -3.3720 o         1 MOL     -0.725385
     64 O12         4.5010    1.6240   -1.2060 o         1 MOL     -0.725385
     65 H26         5.9720   -0.5880   -1.0090 hn        1 MOL      0.193793
     66 H27         8.3860    0.8030   -1.9260 h1        1 MOL      0.088480
     67 H28         6.4380    0.5980   -3.4450 hc        1 MOL      0.072814
     68 H29         6.9650    2.2490   -3.1730 hc        1 MOL      0.072814
     69 N6          6.7650    1.7660    0.7390 n         1 MOL     -0.153827
     70 C23         6.7020    2.6060    1.8970 c3        1 MOL     -0.171776
     71 C24         5.5480    3.5770    1.9160 c         1 MOL      0.503772
     72 O13         5.5820    4.5250    2.6960 o         1 MOL     -0.617967
     73 H30         6.3200    0.8670    0.8390 hn        1 MOL      0.286177
     74 H31         7.6320    3.1370    2.1080 h1        1 MOL      0.093140
     75 H32         6.5130    1.8820    2.6910 h1        1 MOL      0.093140
     76 N7          4.4540    3.4890    1.1720 n         1 MOL     -0.172715
     77 C25         3.1680    4.2740    1.2490 c3        1 MOL     -0.025901
     78 C26         1.9470    3.4020    1.0680 c         1 MOL      0.592843
     79 O14         2.1130    2.2860    0.5670 o         1 MOL     -0.581122
     80 C27         3.1270    5.3150    0.0710 c3        1 MOL      0.078869
     81 C28         4.4260    6.0680   -0.0570 c3        1 MOL     -0.145973
     82 C29         4.3480    7.2790   -1.0460 c         1 MOL      0.592323
     83 N8          5.3510    7.5120   -1.8570 n         1 MOL     -0.729705
     84 O15         3.3840    7.9880   -1.0850 o         1 MOL     -0.575057
     85 H33         4.3570    2.6620    0.6050 hn        1 MOL      0.143872
     86 H34         3.1790    4.8260    2.1910 h1        1 MOL      0.070307
     87 H35         2.3490    6.0730    0.1790 hc        1 MOL     -0.005883
     88 H36         2.9240    4.8060   -0.8740 hc        1 MOL     -0.005883
     89 H37         5.2130    5.4480   -0.4940 hc        1 MOL      0.056921
     90 H38         4.7310    6.3970    0.9410 hc        1 MOL      0.056921
     91 H39         6.2110    6.9690   -1.8010 hn        1 MOL      0.339394
     92 H40         5.2200    8.3990   -2.3150 hn        1 MOL      0.339394
     93 N9          0.7840    3.8400    1.6370 n         1 MOL     -0.595875
     94 C30        -0.3310    2.8550    1.8670 c3        1 MOL      0.159868
     95 C31        -1.4690    3.2860    0.9530 c         1 MOL      0.396873
     96 O16        -2.0910    4.3250    1.2220 o         1 MOL     -0.568888
     97 C32        -0.7660    2.7570    3.3270 c3        1 MOL      0.205775
     98 C33        -1.9350    1.7310    3.5340 c3        1 MOL     -0.152322
     99 C34         0.4320    2.5020    4.2140 c3        1 MOL     -0.152322
    100 H41         0.6730    4.7670    2.0130 hn        1 MOL      0.317498
    101 H42        -0.0790    1.8250    1.6070 h1        1 MOL      0.079098
    102 H43        -1.1800    3.6930    3.7090 hc        1 MOL     -0.038879
    103 H44        -2.1490    1.7440    4.6010 hc        1 MOL      0.018864
    104 H45        -2.7420    2.0500    2.8870 hc        1 MOL      0.018864
    105 H46        -1.5600    0.7200    3.3550 hc        1 MOL      0.018864
    106 H47         1.2310    3.2400    4.1860 hc        1 MOL      0.018864
    107 H48         0.0950    2.4290    5.2530 hc        1 MOL      0.018864
    108 H49         0.9500    1.5530    4.0720 hc        1 MOL      0.018864
    109 N10        -1.7780    2.5750   -0.1170 n         1 MOL     -0.092659
    110 C35        -2.9610    2.7480   -0.9530 c3        1 MOL     -0.186267
    111 C36        -4.2840    2.3070   -0.2150 c         1 MOL      0.475446
    112 O17        -4.2820    1.5890    0.7350 o         1 MOL     -0.325982
    113 C37        -2.6230    1.8900   -2.1690 c3        1 MOL     -0.183101
    114 C38        -3.5930    1.8910   -3.2640 c         1 MOL      0.688768
    115 N11        -3.2900    2.4530   -4.4130 n         1 MOL     -0.799728
    116 O18        -4.6380    1.2460   -3.1770 o         1 MOL     -0.564123
    117 H50        -1.3090    1.6790   -0.1880 hn        1 MOL      0.109192
    118 H51        -3.0740    3.8050   -1.2210 h1        1 MOL      0.091892
    119 H52        -2.4080    0.8750   -1.8320 hc        1 MOL      0.115175
    120 H53        -1.6980    2.2220   -2.6340 hc        1 MOL      0.115175
    121 H54        -2.4340    2.9530   -4.6190 hn        1 MOL      0.370329
    122 H55        -3.9330    2.3130   -5.1750 hn        1 MOL      0.370329
    123 N12        -5.4010    2.6840   -0.7350 n         1 MOL     -0.435455
    124 C39        -6.6510    2.1580   -0.2780 c3        1 MOL      0.030286
    125 C40        -6.7770    0.6280   -0.2970 c         1 MOL      0.600178
    126 O19        -7.3090    0.0400    0.6380 o         1 MOL     -0.479180
    127 C41        -7.7890    2.8170   -1.0220 c3        1 MOL      0.011502
    128 C42        -9.1080    2.3470   -0.5430 ca        1 MOL     -0.132053
    129 C43        -9.5070    2.6960    0.7140 ca        1 MOL     -0.045685
    130 C44        -9.8070    1.4910   -1.3430 ca        1 MOL     -0.045685
    131 C45       -10.7730    2.3280    1.2000 ca        1 MOL     -0.342615
    132 C46       -11.0790    1.0560   -0.8580 ca        1 MOL     -0.342615
    133 C47       -11.5760    1.4760    0.4070 ca        1 MOL      0.397705
    134 O20       -12.7500    1.0310    0.8890 oh        1 MOL     -0.493112
    135 H56        -5.4340    3.3380   -1.4990 hn        1 MOL      0.271685
    136 H57        -6.7420    2.6060    0.7090 h1        1 MOL      0.060789
    137 H58        -7.5800    2.6160   -2.0790 hc        1 MOL      0.026524
    138 H59        -7.8190    3.9060   -1.0990 hc        1 MOL      0.026524
    139 H60        -8.8540    3.3240    1.3060 ha        1 MOL      0.113777
    140 H61        -9.4890    1.1260   -2.3090 ha        1 MOL      0.113777
    141 H62       -11.0460    2.5850    2.2120 ha        1 MOL      0.160395
    142 H63       -11.6640    0.3660   -1.4370 ha        1 MOL      0.160395
    143 H64       -13.2730    0.6210    0.1980 ho        1 MOL      0.349587
    144 N13        -6.1450   -0.0650   -1.2630 n         1 MOL     -0.399298
    145 C48        -6.0480   -1.4980   -1.3850 c3        1 MOL      0.015222
    146 C49        -5.3610   -2.0990   -0.1810 c         1 MOL      0.101595
    147 O21        -5.8340   -3.1740    0.2770 o         1 MOL     -0.472812
    148 C50        -5.2340   -1.7650   -2.6280 c3        1 MOL     -0.011667
    149 C51        -5.1980   -3.2760   -2.8700 c3        1 MOL     -0.273488
    150 C52        -4.7920   -3.6080   -4.2790 c         1 MOL      0.691079
    151 O22        -3.5620   -3.6220   -4.6910 o         1 MOL     -0.740725
    152 O23        -5.7800   -3.8160   -5.0330 o         1 MOL     -0.740725
    153 H65        -5.6780    0.3810   -2.0450 hn        1 MOL      0.204238
    154 H66        -7.0490   -1.9030   -1.4580 h1        1 MOL      0.103912
    155 H67        -4.2380   -1.3420   -2.6020 hc        1 MOL      0.062967
    156 H68        -5.8040   -1.3350   -3.4540 hc        1 MOL      0.062967
    157 H69        -6.1530   -3.7420   -2.6230 hc        1 MOL      0.060278
    158 H70        -4.5680   -3.7350   -2.1040 hc        1 MOL      0.060278
    159 N14        -4.3190   -1.4870    0.2960 n         1 MOL      0.071332
    160 C53        -3.4940   -2.0200    1.3720 c3        1 MOL     -0.089641
    161 C54        -4.1630   -1.7330    2.7520 c         1 MOL      0.360736
    162 O24        -4.0450   -2.4680    3.7610 o         1 MOL     -0.537258
    163 C55        -2.1010   -1.3790    1.2820 c3        1 MOL      0.008703
    164 C56        -1.4250   -1.9040   -0.0570 c3        1 MOL      0.258512
    165 C57        -0.1350   -1.1190   -0.1680 c         1 MOL      0.514777
    166 O25         0.8510   -1.8390   -0.3790 o         1 MOL     -0.658117
    167 O26        -0.1490    0.1380   -0.1530 o         1 MOL     -0.658117
    168 H71        -4.1920   -0.5420   -0.0460 hn        1 MOL      0.138215
    169 H72        -3.4630   -3.1140    1.3940 h1        1 MOL      0.109279
    170 H73        -1.3900   -1.7580    2.0060 hc        1 MOL      0.017852
    171 H74        -2.2830   -0.3060    1.2810 hc        1 MOL      0.017852
    172 H75        -1.9930   -1.7560   -0.9730 hc        1 MOL     -0.083859
    173 H76        -1.2980   -2.9800    0.0550 hc        1 MOL     -0.083859
    174 N15        -5.0150   -0.6640    2.8260 n         1 MOL     -0.018933
    175 C58        -5.8880   -0.2210    3.8770 c3        1 MOL     -0.116904
    176 H77        -6.8070    0.1730    3.4440 h1        1 MOL      0.046859
    177 H78        -6.1250   -1.0600    4.5310 h1        1 MOL      0.046859
    178 H79        -5.3940    0.5600    4.4550 h1        1 MOL      0.046859
    179 H80        -5.0320    0.0340    2.0870 hn        1 MOL      0.029722
    180 Ca1         2.2510    0.3210   -1.1760 Ca        1 MOL      1.790544
    181 O27         0.6670   -0.0130   -3.2240 oh        1 MOL     -0.892017
    182 H81        -0.2070   -0.0310   -3.6200 ho        1 MOL      0.411061
    183 H82         1.1380   -0.7270   -3.6560 ho        1 MOL      0.411061
    184 O28         1.9100    2.8200   -2.2040 oh        1 MOL     -0.892017
    185 H83         2.7830    2.8570   -2.5900 ho        1 MOL      0.411061
    186 H84         1.5030    3.6530   -2.4400 ho        1 MOL      0.411061
@<TRIPOS>BOND
     1    1    2 1   
     2    1    4 1   
     3    1    5 1   
     4    1    6 1   
     5    2    3 2   
     6    2    7 1   
     7    7    8 1   
     8    7   15 1   
     9    8    9 1   
    10    8   11 1   
    11    8   16 1   
    12    9   10 2   
    13    9   19 1   
    14   11   12 1   
    15   11   17 1   
    16   11   18 1   
    17   12   13 1   
    18   12   14 1   
    19   19   20 1   
    20   19   27 1   
    21   20   21 1   
    22   20   23 1   
    23   20   28 1   
    24   21   22 2   
    25   21   38 1   
    26   23   24 1   
    27   23   25 1   
    28   23   29 1   
    29   24   26 1   
    30   24   30 1   
    31   24   31 1   
    32   25   32 1   
    33   25   33 1   
    34   25   34 1   
    35   26   35 1   
    36   26   36 1   
    37   26   37 1   
    38   38   39 1   
    39   38   46 1   
    40   39   40 1   
    41   39   42 1   
    42   39   47 1   
    43   40   41 2   
    44   40   50 1   
    45   42   43 1   
    46   42   48 1   
    47   42   49 1   
    48   43   44 1   
    49   43   45 1   
    50   50   51 1   
    51   50   54 1   
    52   51   52 1   
    53   51   55 1   
    54   51   56 1   
    55   52   53 2   
    56   52   57 1   
    57   57   58 1   
    58   57   65 1   
    59   58   59 1   
    60   58   61 1   
    61   58   66 1   
    62   59   60 2   
    63   59   69 1   
    64   61   62 1   
    65   61   67 1   
    66   61   68 1   
    67   62   63 1   
    68   62   64 1   
    69   69   70 1   
    70   69   73 1   
    71   70   71 1   
    72   70   74 1   
    73   70   75 1   
    74   71   72 2   
    75   71   76 1   
    76   76   77 1   
    77   76   85 1   
    78   77   78 1   
    79   77   80 1   
    80   77   86 1   
    81   78   79 2   
    82   78   93 1   
    83   80   81 1   
    84   80   87 1   
    85   80   88 1   
    86   81   82 1   
    87   81   89 1   
    88   81   90 1   
    89   82   83 1   
    90   82   84 2   
    91   83   91 1   
    92   83   92 1   
    93   93   94 1   
    94   93  100 1   
    95   94   95 1   
    96   94   97 1   
    97   94  101 1   
    98   95   96 2   
    99   95  109 1   
   100   97   98 1   
   101   97   99 1   
   102   97  102 1   
   103   98  103 1   
   104   98  104 1   
   105   98  105 1   
   106   99  106 1   
   107   99  107 1   
   108   99  108 1   
   109  109  110 1   
   110  109  117 1   
   111  110  111 1   
   112  110  113 1   
   113  110  118 1   
   114  111  112 2   
   115  111  123 1   
   116  113  114 1   
   117  113  119 1   
   118  113  120 1   
   119  114  115 1   
   120  114  116 2   
   121  115  121 1   
   122  115  122 1   
   123  123  124 1   
   124  123  135 1   
   125  124  125 1   
   126  124  127 1   
   127  124  136 1   
   128  125  126 2   
   129  125  144 1   
   130  127  128 1   
   131  127  137 1   
   132  127  138 1   
   133  128  129 ar  
   134  128  130 ar  
   135  129  131 ar  
   136  129  139 1   
   137  130  132 ar  
   138  130  140 1   
   139  131  133 ar  
   140  131  141 1   
   141  132  133 ar  
   142  132  142 1   
   143  133  134 1   
   144  134  143 1   
   145  144  145 1   
   146  144  153 1   
   147  145  146 1   
   148  145  148 1   
   149  145  154 1   
   150  146  147 2   
   151  146  159 1   
   152  148  149 1   
   153  148  155 1   
   154  148  156 1   
   155  149  150 1   
   156  149  157 1   
   157  149  158 1   
   158  150  151 1   
   159  150  152 1   
   160  159  160 1   
   161  159  168 1   
   162  160  161 1   
   163  160  163 1   
   164  160  169 1   
   165  161  162 2   
   166  161  174 1   
   167  163  164 1   
   168  163  170 1   
   169  163  171 1   
   170  164  165 1   
   171  164  172 1   
   172  164  173 1   
   173  165  166 1   
   174  165  167 1   
   175  174  175 1   
   176  174  179 1   
   177  175  176 1   
   178  175  177 1   
   179  175  178 1   
   180  181  182 1   
   181  181  183 1   
   182  184  185 1   
   183  184  186 1   
@<TRIPOS>SUBSTRUCTURE
     1 MOL         1 TEMP              0 ****  ****    0 ROOT
