@<TRIPOS>MOLECULE
MOL
  175   173     1     0     0
SMALL
resp


@<TRIPOS>ATOM
      1 C1          0.6870    3.7580    5.7870 c3        1 MOL     -0.333554
      2 C2          0.2490    3.6810    4.3710 c         1 MOL      0.728276
      3 O1          1.0490    3.9180    3.4550 o         1 MOL     -0.561898
      4 H1         -0.1380    3.4690    6.4390 hc        1 MOL      0.078524
      5 H2          1.5280    3.0810    5.9460 hc        1 MOL      0.078524
      6 H3          0.9920    4.7780    6.0190 hc        1 MOL      0.078524
      7 N1         -1.0190    3.2350    4.1500 n         1 MOL     -0.594063
      8 C3         -1.6890    3.3490    2.8130 c3        1 MOL     -0.011187
      9 C4         -1.8080    4.7460    2.0410 c         1 MOL      0.521649
     10 O2         -2.0960    5.8170    2.5420 o         1 MOL     -0.548456
     11 C5         -3.0850    2.8380    3.0690 c3        1 MOL     -0.056847
     12 C6         -3.7960    2.8100    1.7420 c         1 MOL      0.593900
     13 O3         -3.5260    1.9960    0.8260 o         1 MOL     -0.627572
     14 O4         -4.7030    3.6870    1.6920 o         1 MOL     -0.627572
     15 H4         -1.5530    2.9750    4.9600 hn        1 MOL      0.318836
     16 H5         -1.2400    2.6670    2.1030 h1        1 MOL      0.159165
     17 H6         -3.6930    3.4280    3.7690 hc        1 MOL     -0.004139
     18 H7         -3.0820    1.8490    3.5230 hc        1 MOL     -0.004139
     19 N2         -1.7110    4.5470    0.7660 n         1 MOL     -0.367286
     20 C7         -2.0270    5.5400   -0.1770 c3        1 MOL      0.275287
     21 C8         -2.9930    5.1220   -1.4030 c         1 MOL      0.465552
     22 O5         -3.1810    5.9260   -2.2970 o         1 MOL     -0.562513
     23 C9         -0.7500    6.1940   -0.6890 c3        1 MOL     -0.308774
     24 H8         -1.4210    3.6640    0.3610 hn        1 MOL      0.252717
     25 H9         -2.6460    6.2630    0.3780 h1        1 MOL      0.027513
     26 H10        -1.1630    6.9340   -1.3780 hc        1 MOL      0.065606
     27 H11        -0.1380    6.6140    0.1090 hc        1 MOL      0.065606
     28 H12        -0.1810    5.4280   -1.2210 hc        1 MOL      0.065606
     29 N3         -3.6550    3.9760   -1.3840 n         1 MOL     -0.303349
     30 C10        -4.5510    3.6140   -2.4590 c3        1 MOL      0.114471
     31 C11        -5.8740    2.9420   -2.0430 c         1 MOL      0.306796
     32 O6         -6.8650    3.0850   -2.7930 o         1 MOL     -0.582937
     33 C12        -3.8590    2.6270   -3.4740 c3        1 MOL     -0.053385
     34 C13        -3.1150    1.4090   -3.0290 c         1 MOL      0.515185
     35 O7         -2.0680    1.1230   -3.6160 o         1 MOL     -0.602577
     36 O8         -3.6690    0.7840   -2.0810 o         1 MOL     -0.602577
     37 H13        -3.4580    3.2830   -0.6660 hn        1 MOL      0.144795
     38 H14        -4.8160    4.4860   -3.0460 h1        1 MOL      0.074673
     39 H15        -3.2970    3.2000   -4.2210 hc        1 MOL      0.011266
     40 H16        -4.6630    2.2800   -4.1260 hc        1 MOL      0.011266
     41 N4         -6.0010    2.1620   -1.0060 n         1 MOL      0.008567
     42 C14        -7.2580    1.5130   -0.5780 c3        1 MOL     -0.229229
     43 C15        -7.3530    0.0640   -1.0520 c         1 MOL      0.537366
     44 O9         -8.4810   -0.4070   -0.8760 o         1 MOL     -0.586082
     45 H17        -5.2250    2.1650   -0.3480 hn        1 MOL      0.050656
     46 H18        -8.1160    2.0280   -1.0340 h1        1 MOL      0.116686
     47 H19        -7.3420    1.5870    0.5070 h1        1 MOL      0.116686
     48 N5         -6.2210   -0.6020   -1.5060 n         1 MOL     -0.234316
     49 C16        -6.3630   -1.9440   -2.0790 c3        1 MOL     -0.031723
     50 C17        -6.4560   -3.0790   -1.1010 c         1 MOL      0.359644
     51 O10        -6.7000   -4.2340   -1.4930 o         1 MOL     -0.540816
     52 C18        -5.2510   -2.1600   -3.1650 c3        1 MOL     -0.206147
     53 C19        -3.8050   -2.1170   -2.7390 c         1 MOL      0.373354
     54 N6         -2.7930   -2.0950   -3.6160 n         1 MOL     -0.618219
     55 O11        -3.5860   -2.1230   -1.5420 o         1 MOL      0.076268
     56 H20        -5.3750   -0.0810   -1.6890 hn        1 MOL      0.141757
     57 H21        -7.3250   -1.8760   -2.5980 h1        1 MOL      0.116291
     58 H22        -5.4330   -1.4230   -3.9410 hc        1 MOL      0.067750
     59 H23        -5.3350   -3.1390   -3.6460 hc        1 MOL      0.067750
     60 H24        -3.0760   -2.0140   -4.5820 hn        1 MOL      0.335361
     61 H25        -1.8790   -1.8770   -3.2590 hn        1 MOL      0.335361
     62 N7         -6.4700   -2.7690    0.1740 n         1 MOL     -0.112545
     63 C20        -6.4520   -3.6730    1.2970 c3        1 MOL     -0.405896
     64 C21        -5.0770   -4.1630    1.7220 c         1 MOL      0.540704
     65 O12        -4.9550   -4.9030    2.7460 o         1 MOL     -0.571986
     66 H26        -6.3850   -1.7770    0.3320 hn        1 MOL      0.190690
     67 H27        -7.0580   -4.5360    1.0250 h1        1 MOL      0.165412
     68 H28        -6.9240   -3.0890    2.0920 h1        1 MOL      0.165412
     69 N8         -4.0320   -3.8540    0.8950 n         1 MOL     -0.136554
     70 C22        -2.6860   -4.4530    1.1400 c3        1 MOL     -0.348882
     71 C23        -1.6100   -3.4580    1.2530 c         1 MOL      0.818015
     72 O13        -1.8020   -2.3840    0.7120 o         1 MOL     -0.764291
     73 C24        -2.3480   -5.3760   -0.0770 c3        1 MOL      0.703573
     74 C25        -3.3120   -6.5750   -0.2250 c3        1 MOL     -0.535668
     75 O14        -2.4690   -4.6830   -1.3160 oh        1 MOL     -0.570597
     76 H29        -4.1760   -3.3820    0.0160 hn        1 MOL      0.147958
     77 H30        -2.6050   -5.1150    2.0080 h1        1 MOL      0.092358
     78 H31        -1.3490   -5.7690    0.0840 h1        1 MOL     -0.095662
     79 H32        -2.6470   -3.7490   -1.1380 ho        1 MOL      0.097980
     80 H33        -4.1620   -6.1650   -0.7810 hc        1 MOL      0.124914
     81 H34        -2.8230   -7.3180   -0.8580 hc        1 MOL      0.124914
     82 H35        -3.5830   -7.0200    0.7250 hc        1 MOL      0.124914
     83 N9         -0.5630   -3.7850    1.9930 n         1 MOL     -0.605083
     84 C26         0.6480   -2.9450    2.0910 c3        1 MOL     -0.089929
     85 C27         1.4760   -3.1000    0.8020 c         1 MOL      0.611885
     86 O15         1.9210   -4.2290    0.5670 o         1 MOL     -0.594865
     87 C28         1.6590   -3.3080    3.2440 c3        1 MOL      0.258227
     88 C29         0.9930   -3.5310    4.5510 c3        1 MOL      0.118181
     89 C30         2.6540   -2.0850    3.5020 c3        1 MOL     -0.468643
     90 C31         1.8440   -4.4360    5.5310 c3        1 MOL     -0.224582
     91 H36        -0.5390   -4.7360    2.3370 hn        1 MOL      0.318510
     92 H37         0.2880   -1.9220    2.2010 h1        1 MOL      0.098324
     93 H38         2.1900   -4.2060    2.9550 hc        1 MOL     -0.008886
     94 H39         0.0690   -4.0910    4.4370 hc        1 MOL     -0.029072
     95 H40         0.6640   -2.5850    4.9820 hc        1 MOL     -0.029072
     96 H41         3.2450   -1.9640    2.5930 hc        1 MOL      0.094543
     97 H42         2.0710   -1.1890    3.6820 hc        1 MOL      0.094543
     98 H43         3.2450   -2.3670    4.3670 hc        1 MOL      0.094543
     99 H44         2.8310   -3.9780    5.4970 hc        1 MOL      0.046250
    100 H45         1.4740   -4.3950    6.5460 hc        1 MOL      0.046250
    101 H46         2.0230   -5.4620    5.1970 hc        1 MOL      0.046250
    102 N10         1.8640   -1.9810    0.1690 n         1 MOL     -0.431623
    103 C32         2.6140   -1.9780   -1.0930 c3        1 MOL      0.033549
    104 C33         4.0830   -1.6180   -0.8880 c         1 MOL      0.396279
    105 O16         4.3240   -1.0000    0.1260 o         1 MOL     -0.235400
    106 C34         1.9090   -1.0870   -2.1700 c3        1 MOL     -0.272888
    107 C35         0.3910   -1.4340   -2.3700 c         1 MOL      0.676081
    108 O17        -0.4960   -0.9260   -1.6290 o         1 MOL     -0.659309
    109 O18         0.0730   -2.0110   -3.4320 o         1 MOL     -0.659309
    110 H47         1.4450   -1.1480    0.5640 hn        1 MOL      0.474931
    111 H48         2.5300   -3.0080   -1.4400 h1        1 MOL      0.072363
    112 H49         2.4650   -1.1200   -3.1040 hc        1 MOL      0.081881
    113 H50         2.0200   -0.0470   -1.8570 hc        1 MOL      0.081881
    114 N11         5.0110   -1.8880   -1.8030 n         1 MOL     -0.623980
    115 C36         6.4540   -1.4900   -1.5790 c3        1 MOL      0.477642
    116 C37         6.7340    0.0010   -1.1840 c         1 MOL      0.302353
    117 O19         7.3800    0.1600   -0.2150 o         1 MOL     -0.468164
    118 C38         7.4130   -1.8040   -2.6960 c3        1 MOL     -0.393712
    119 C39         8.8770   -1.6640   -2.2580 ca        1 MOL      0.156946
    120 C40         9.4830   -2.6450   -1.3800 ca        1 MOL     -0.220739
    121 C41         9.6410   -0.5970   -2.7150 ca        1 MOL     -0.220739
    122 C42        10.7750   -2.4220   -0.8660 ca        1 MOL     -0.063559
    123 C43        11.0110   -0.5250   -2.3040 ca        1 MOL     -0.063559
    124 C44        11.5560   -1.4170   -1.4150 ca        1 MOL     -0.133258
    125 H51         4.8000   -2.3480   -2.6820 hn        1 MOL      0.335259
    126 H52         6.7920   -2.0720   -0.7300 h1        1 MOL      0.008083
    127 H53         7.3570   -1.0810   -3.5010 hc        1 MOL      0.109984
    128 H54         7.2590   -2.8330   -3.0110 hc        1 MOL      0.109984
    129 H55         8.8510   -3.4850   -1.1180 ha        1 MOL      0.134639
    130 H56         9.3240    0.0990   -3.4670 ha        1 MOL      0.134639
    131 H57        11.1160   -3.0620   -0.0660 ha        1 MOL      0.100959
    132 H58        11.5590    0.2890   -2.7560 ha        1 MOL      0.100959
    133 H59        12.6090   -1.3780   -1.1780 ha        1 MOL      0.096014
    134 N12         6.1900    1.0410   -1.9040 n         1 MOL     -0.062339
    135 C45         6.3230    2.4720   -1.6480 c3        1 MOL      0.023156
    136 C46         5.6180    2.8520   -0.3600 c         1 MOL      0.406318
    137 O20         5.7770    3.9870    0.0260 o         1 MOL     -0.544410
    138 C47         5.7550    3.2860   -2.8820 c3        1 MOL     -0.268776
    139 C48         4.9070    2.2440   -3.5810 c3        1 MOL      0.122690
    140 C49         5.3910    0.8900   -3.1300 c3        1 MOL     -0.065100
    141 H60         7.3820    2.6530   -1.4550 h1        1 MOL      0.066485
    142 H61         5.1070    4.1020   -2.5640 hc        1 MOL      0.102045
    143 H62         6.6190    3.5620   -3.4710 hc        1 MOL      0.102045
    144 H63         3.8540    2.3750   -3.3830 hc        1 MOL      0.013538
    145 H64         4.9550    2.3270   -4.6700 hc        1 MOL      0.013538
    146 H65         4.5980    0.2210   -2.8130 h1        1 MOL      0.007668
    147 H66         5.9740    0.4120   -3.9090 h1        1 MOL      0.007668
    148 N13         4.8300    1.9960    0.2610 n         1 MOL     -0.158382
    149 C50         4.1910    2.1130    1.5200 c3        1 MOL      0.015465
    150 C51         4.9330    1.3880    2.6910 c         1 MOL      0.402351
    151 O21         5.1660    1.9790    3.7210 o         1 MOL     -0.543402
    152 C52         2.7510    1.5010    1.5490 c3        1 MOL      0.052998
    153 C53         1.7060    2.1290    0.6330 c3        1 MOL     -0.168662
    154 C54         0.3250    1.4050    0.6140 c         1 MOL      0.441644
    155 O22        -0.5680    1.8740   -0.1230 o         1 MOL     -0.668401
    156 O23         0.1350    0.3080    1.2040 o         1 MOL     -0.668401
    157 H67         4.7080    1.1480   -0.2750 hn        1 MOL      0.158943
    158 H68         4.0980    3.1440    1.8790 h1        1 MOL      0.078113
    159 H69         2.3760    1.7650    2.5380 hc        1 MOL      0.000773
    160 H70         2.7410    0.4220    1.4230 hc        1 MOL      0.000773
    161 H71         2.1510    2.1740   -0.3670 hc        1 MOL      0.082791
    162 H72         1.5620    3.1710    0.9240 hc        1 MOL      0.082791
    163 N14         5.3090    0.1120    2.4820 n         1 MOL     -0.038364
    164 C55         6.2120   -0.6910    3.3610 c3        1 MOL     -0.204832
    165 H73         7.1810   -0.8060    2.8770 h1        1 MOL      0.082030
    166 H74         6.3410   -0.1780    4.3150 h1        1 MOL      0.082030
    167 H75         5.7730   -1.6740    3.5330 h1        1 MOL      0.082030
    168 H76         5.2030   -0.1610    1.5110 hn        1 MOL     -0.021718
    169 Ca1        -2.2840   -0.0900   -0.1840 Ca        1 MOL      1.612752
    170 O24        -2.1690   -0.2200    2.6280 oh        1 MOL     -0.808614
    171 H77        -1.2180   -0.3390    2.6890 ho        1 MOL      0.390296
    172 H78        -2.4350    0.0090    3.5210 ho        1 MOL      0.390296
    173 O25        -4.6610   -0.6090    1.0610 oh        1 MOL     -0.808614
    174 H79        -4.8850    0.3220    1.0920 ho        1 MOL      0.390296
    175 H80        -4.6070   -0.8750    1.9820 ho        1 MOL      0.390296
@<TRIPOS>BOND
     1    1    2 1   
     2    1    4 1   
     3    1    5 1   
     4    1    6 1   
     5    2    3 2   
     6    2    7 1   
     7    7    8 1   
     8    7   15 1   
     9    8    9 1   
    10    8   11 1   
    11    8   16 1   
    12    9   10 2   
    13    9   19 1   
    14   11   12 1   
    15   11   17 1   
    16   11   18 1   
    17   12   13 1   
    18   12   14 1   
    19   19   20 1   
    20   19   24 1   
    21   20   21 1   
    22   20   23 1   
    23   20   25 1   
    24   21   22 2   
    25   21   29 1   
    26   23   26 1   
    27   23   27 1   
    28   23   28 1   
    29   29   30 1   
    30   29   37 1   
    31   30   31 1   
    32   30   33 1   
    33   30   38 1   
    34   31   32 2   
    35   31   41 1   
    36   33   34 1   
    37   33   39 1   
    38   33   40 1   
    39   34   35 1   
    40   34   36 1   
    41   41   42 1   
    42   41   45 1   
    43   42   43 1   
    44   42   46 1   
    45   42   47 1   
    46   43   44 2   
    47   43   48 1   
    48   48   49 1   
    49   48   56 1   
    50   49   50 1   
    51   49   52 1   
    52   49   57 1   
    53   50   51 2   
    54   50   62 1   
    55   52   53 1   
    56   52   58 1   
    57   52   59 1   
    58   53   54 1   
    59   53   55 2   
    60   54   60 1   
    61   54   61 1   
    62   62   63 1   
    63   62   66 1   
    64   63   64 1   
    65   63   67 1   
    66   63   68 1   
    67   64   65 2   
    68   64   69 1   
    69   69   70 1   
    70   69   76 1   
    71   70   71 1   
    72   70   73 1   
    73   70   77 1   
    74   71   72 2   
    75   71   83 1   
    76   73   74 1   
    77   73   75 1   
    78   73   78 1   
    79   74   80 1   
    80   74   81 1   
    81   74   82 1   
    82   75   79 1   
    83   83   84 1   
    84   83   91 1   
    85   84   85 1   
    86   84   87 1   
    87   84   92 1   
    88   85   86 2   
    89   85  102 1   
    90   87   88 1   
    91   87   89 1   
    92   87   93 1   
    93   88   90 1   
    94   88   94 1   
    95   88   95 1   
    96   89   96 1   
    97   89   97 1   
    98   89   98 1   
    99   90   99 1   
   100   90  100 1   
   101   90  101 1   
   102  102  103 1   
   103  102  110 1   
   104  103  104 1   
   105  103  106 1   
   106  103  111 1   
   107  104  105 2   
   108  104  114 1   
   109  106  107 1   
   110  106  112 1   
   111  106  113 1   
   112  107  108 1   
   113  107  109 1   
   114  114  115 1   
   115  114  125 1   
   116  115  116 1   
   117  115  118 1   
   118  115  126 1   
   119  116  117 2   
   120  116  134 1   
   121  118  119 1   
   122  118  127 1   
   123  118  128 1   
   124  119  120 ar  
   125  119  121 ar  
   126  120  122 ar  
   127  120  129 1   
   128  121  123 ar  
   129  121  130 1   
   130  122  124 ar  
   131  122  131 1   
   132  123  124 ar  
   133  123  132 1   
   134  124  133 1   
   135  134  135 1   
   136  134  140 1   
   137  135  136 1   
   138  135  138 1   
   139  135  141 1   
   140  136  137 2   
   141  136  148 1   
   142  138  139 1   
   143  138  142 1   
   144  138  143 1   
   145  139  140 1   
   146  139  144 1   
   147  139  145 1   
   148  140  146 1   
   149  140  147 1   
   150  148  149 1   
   151  148  157 1   
   152  149  150 1   
   153  149  152 1   
   154  149  158 1   
   155  150  151 2   
   156  150  163 1   
   157  152  153 1   
   158  152  159 1   
   159  152  160 1   
   160  153  154 1   
   161  153  161 1   
   162  153  162 1   
   163  154  155 1   
   164  154  156 1   
   165  163  164 1   
   166  163  168 1   
   167  164  165 1   
   168  164  166 1   
   169  164  167 1   
   170  170  171 1   
   171  170  172 1   
   172  173  174 1   
   173  173  175 1   
@<TRIPOS>SUBSTRUCTURE
     1 MOL         1 TEMP              0 ****  ****    0 ROOT
