@<TRIPOS>MOLECULE
MOL
  183   181     1     0     0
SMALL
resp


@<TRIPOS>ATOM
      1 C1         -0.3460    2.4150    5.8980 c3        1 MOL     -0.215250
      2 C2         -0.6570    2.3010    4.4030 c         1 MOL      0.788481
      3 O1          0.1320    2.4300    3.4800 o         1 MOL     -0.620903
      4 H1         -0.6570    1.5000    6.4040 hc        1 MOL      0.043636
      5 H2          0.7260    2.5600    6.0360 hc        1 MOL      0.043636
      6 H3         -0.8860    3.2640    6.3180 hc        1 MOL      0.043636
      7 N1         -1.9180    1.9880    4.0880 n         1 MOL     -0.620755
      8 C3         -2.5140    1.7810    2.7720 c3        1 MOL      0.174103
      9 C4         -3.0700    3.1000    2.2570 c         1 MOL      0.501783
     10 O2         -3.9000    3.7700    2.8680 o         1 MOL     -0.590667
     11 C5         -3.6780    0.6780    2.7890 c3        1 MOL     -0.299493
     12 C6         -4.2770    0.3780    1.4420 c         1 MOL      0.917020
     13 O3         -5.2630   -0.3550    1.5060 o         1 MOL     -0.694973
     14 O4         -3.8170    0.9520    0.3470 o         1 MOL     -0.694973
     15 H4         -2.5550    1.9910    4.8730 hn        1 MOL      0.297467
     16 H5         -1.8360    1.4180    1.9930 h1        1 MOL      0.038358
     17 H6         -4.4850    1.0260    3.4330 hc        1 MOL      0.053390
     18 H7         -3.3840   -0.2810    3.1960 hc        1 MOL      0.053390
     19 N2         -2.5840    3.5730    1.1220 n         1 MOL     -0.352452
     20 C7         -3.0960    4.8330    0.5880 c3        1 MOL     -0.177287
     21 C8         -4.3510    4.6270   -0.2430 c         1 MOL      0.522901
     22 O5         -5.1090    5.5440   -0.5180 o         1 MOL     -0.563866
     23 C9         -1.9950    5.5150   -0.2300 c3        1 MOL      0.376003
     24 C10        -0.7300    5.8880    0.6130 c3        1 MOL     -0.023691
     25 C11        -2.4920    6.9520   -0.6890 c3        1 MOL     -0.309150
     26 C12         0.4940    6.3840   -0.0710 c3        1 MOL     -0.191012
     27 H8         -1.8620    3.0530    0.6490 hn        1 MOL      0.252614
     28 H9         -3.3740    5.5350    1.3790 h1        1 MOL      0.096033
     29 H10        -1.7880    4.8950   -1.0920 hc        1 MOL     -0.000093
     30 H11        -0.4320    4.9890    1.1670 hc        1 MOL     -0.008146
     31 H12        -0.9430    6.6490    1.3660 hc        1 MOL     -0.008146
     32 H13        -2.7440    7.5530    0.1880 hc        1 MOL      0.051504
     33 H14        -1.7700    7.4350   -1.3520 hc        1 MOL      0.051504
     34 H15        -3.4210    6.8670   -1.2550 hc        1 MOL      0.051504
     35 H16         0.8800    5.5710   -0.6810 hc        1 MOL      0.040793
     36 H17         0.3060    7.2110   -0.7590 hc        1 MOL      0.040793
     37 H18         1.2710    6.5740    0.6680 hc        1 MOL      0.040793
     38 N3         -4.5310    3.3820   -0.7360 n         1 MOL     -0.274807
     39 C13        -5.6330    3.1570   -1.7040 c3        1 MOL     -0.042052
     40 C14        -6.8650    2.6290   -1.0160 c         1 MOL      0.444631
     41 O6         -8.0320    2.8670   -1.4330 o         1 MOL     -0.595930
     42 C15        -5.0780    2.1510   -2.7490 c3        1 MOL     -0.057211
     43 C16        -3.5890    2.3330   -3.0780 c         1 MOL      0.580133
     44 O7         -3.1820    3.4920   -3.3850 o         1 MOL     -0.663091
     45 O8         -2.7460    1.4030   -2.8800 o         1 MOL     -0.663091
     46 H19        -3.8670    2.6530   -0.5040 hn        1 MOL      0.304527
     47 H20        -6.0000    4.0750   -2.1790 h1        1 MOL      0.098188
     48 H21        -5.6810    2.0800   -3.6530 hc        1 MOL      0.018338
     49 H22        -5.1230    1.1760   -2.2510 hc        1 MOL      0.018338
     50 N4         -6.8220    1.8410    0.0400 n         1 MOL     -0.207195
     51 C17        -7.9540    1.0880    0.6690 c3        1 MOL     -0.128268
     52 C18        -8.1170   -0.3170    0.0930 c         1 MOL      0.547983
     53 O9         -9.1580   -0.9030    0.4000 o         1 MOL     -0.602334
     54 H23        -5.9020    1.6740    0.4310 hn        1 MOL      0.127263
     55 H24        -8.8970    1.6200    0.6780 h1        1 MOL      0.092500
     56 H25        -7.7430    0.9740    1.7410 h1        1 MOL      0.092500
     57 N5         -7.1680   -0.7690   -0.7320 n         1 MOL     -0.150232
     58 C19        -7.1890   -2.1000   -1.2360 c3        1 MOL     -0.123488
     59 C20        -7.0730   -3.2150   -0.1770 c         1 MOL      0.506524
     60 O10        -7.4570   -4.3790   -0.4310 o         1 MOL     -0.591308
     61 C21        -6.2100   -2.2730   -2.5040 c3        1 MOL     -0.118530
     62 C22        -4.8250   -1.9190   -2.1650 c         1 MOL      0.815129
     63 O11        -3.9380   -1.7180   -3.0540 o         1 MOL     -0.795795
     64 O12        -4.3990   -1.8510   -0.9890 o         1 MOL     -0.795795
     65 H26        -6.2130   -0.4730   -0.5350 hn        1 MOL     -0.003970
     66 H27        -8.2200   -2.2340   -1.5450 h1        1 MOL      0.093082
     67 H28        -6.4400   -1.6370   -3.3540 hc        1 MOL      0.043535
     68 H29        -6.3130   -3.3020   -2.8470 hc        1 MOL      0.043535
     69 N6         -6.6360   -2.9060    1.0280 n         1 MOL     -0.172548
     70 C23        -6.4660   -3.9070    2.0670 c3        1 MOL     -0.203733
     71 C24        -5.0710   -4.5610    2.0880 c         1 MOL      0.664647
     72 O13        -4.9550   -5.5870    2.7210 o         1 MOL     -0.615732
     73 H30        -6.2940   -1.9620    1.1540 hn        1 MOL      0.258833
     74 H31        -7.2480   -4.6520    1.9240 h1        1 MOL      0.082644
     75 H32        -6.5500   -3.4720    3.0640 h1        1 MOL      0.082644
     76 N7         -4.0730   -3.9940    1.4140 n         1 MOL     -0.392359
     77 C25        -2.6780   -4.5430    1.3360 c3        1 MOL      0.011823
     78 C26        -1.7420   -3.2990    1.3610 c         1 MOL      0.720330
     79 O14        -2.0990   -2.2190    0.9120 o         1 MOL     -0.736805
     80 C27        -2.5060   -5.5510    0.1550 c3        1 MOL     -0.230782
     81 C28        -2.5660   -4.9880   -1.2690 c3        1 MOL     -0.022420
     82 C29        -1.3190   -4.3220   -1.6930 c         1 MOL      0.501939
     83 N8         -0.4630   -5.0490   -2.2930 n         1 MOL     -0.696146
     84 O15        -1.1290   -3.1240   -1.5670 o         1 MOL     -0.505760
     85 H33        -4.1760   -3.1230    0.9150 hn        1 MOL      0.282803
     86 H34        -2.4140   -5.0660    2.2550 h1        1 MOL      0.023514
     87 H35        -3.3850   -6.1780    0.3180 hc        1 MOL      0.081662
     88 H36        -1.5850   -6.1410    0.2240 hc        1 MOL      0.081662
     89 H37        -3.3320   -4.2140   -1.3010 hc        1 MOL      0.050173
     90 H38        -2.8530   -5.8270   -1.8950 hc        1 MOL      0.050173
     91 H39        -0.5570   -6.0410   -2.4590 hn        1 MOL      0.337036
     92 H40         0.3680   -4.5560   -2.5910 hn        1 MOL      0.337036
     93 N9         -0.4760   -3.5800    1.6840 n         1 MOL     -0.445168
     94 C30         0.5120   -2.5460    1.8490 c3        1 MOL      0.024962
     95 C31         1.7110   -3.0900    1.0800 c         1 MOL      0.444422
     96 O16         2.3980   -4.0640    1.4760 o         1 MOL     -0.590531
     97 C32         0.8360   -2.3770    3.3620 c3        1 MOL      0.253709
     98 C33         1.7780   -1.1790    3.6330 c3        1 MOL     -0.346098
     99 C34        -0.4450   -2.1040    4.2010 c3        1 MOL     -0.346098
    100 H41        -0.2150   -4.5260    1.9380 hn        1 MOL      0.279015
    101 H42         0.2310   -1.5800    1.4220 h1        1 MOL      0.170829
    102 H43         1.2080   -3.3330    3.7340 hc        1 MOL     -0.035798
    103 H44         1.4140   -0.2470    3.1860 hc        1 MOL      0.073668
    104 H45         2.0410   -0.9860    4.6680 hc        1 MOL      0.073668
    105 H46         2.6580   -1.4490    3.0550 hc        1 MOL      0.073668
    106 H47        -1.2000   -2.8840    4.1280 hc        1 MOL      0.073668
    107 H48        -0.2220   -1.8190    5.2290 hc        1 MOL      0.073668
    108 H49        -0.9980   -1.2830    3.7490 hc        1 MOL      0.073668
    109 N10         2.0360   -2.4080   -0.0100 n         1 MOL     -0.291700
    110 C35         3.3220   -2.5660   -0.8250 c3        1 MOL      0.103856
    111 C36         4.5280   -1.8960   -0.1290 c         1 MOL      0.567167
    112 O17         4.4270   -1.0470    0.7380 o         1 MOL     -0.396977
    113 C37         3.1140   -1.9110   -2.1990 c3        1 MOL     -0.108354
    114 C38         2.5680   -2.9220   -3.2030 c         1 MOL      0.582105
    115 N11         2.4880   -2.5220   -4.4520 n         1 MOL     -0.724735
    116 O18         2.1910   -4.0410   -2.8670 o         1 MOL     -0.542635
    117 H50         1.3880   -1.6600   -0.2200 hn        1 MOL      0.193516
    118 H51         3.5580   -3.6250   -0.9090 h1        1 MOL      0.047535
    119 H52         4.0960   -1.6050   -2.5350 hc        1 MOL      0.002336
    120 H53         2.3630   -1.1240   -2.0700 hc        1 MOL      0.002336
    121 H54         2.8030   -1.5920   -4.6890 hn        1 MOL      0.351241
    122 H55         2.1770   -3.1570   -5.1820 hn        1 MOL      0.351241
    123 N12         5.7010   -2.2250   -0.6010 n         1 MOL     -0.703154
    124 C39         6.9010   -1.5270   -0.0980 c3        1 MOL      0.234355
    125 C40         6.8930    0.0590   -0.2780 c         1 MOL      0.470725
    126 O19         7.3580    0.6540    0.6440 o         1 MOL     -0.474299
    127 C41         8.1380   -2.3060   -0.6530 c3        1 MOL     -0.059130
    128 C42         9.4960   -1.9290   -0.0240 ca        1 MOL     -0.133611
    129 C43         9.7720   -1.9710    1.3500 ca        1 MOL      0.009277
    130 C44        10.4790   -1.3760   -0.8580 ca        1 MOL      0.009277
    131 C45        11.0380   -1.4870    1.8280 ca        1 MOL     -0.449282
    132 C46        11.6780   -0.8410   -0.3950 ca        1 MOL     -0.449282
    133 C47        11.9400   -0.8320    0.9880 ca        1 MOL      0.576460
    134 O20        13.1440   -0.3100    1.3270 oh        1 MOL     -0.591076
    135 H56         5.7870   -2.7550   -1.4580 hn        1 MOL      0.338873
    136 H57         6.9280   -1.6330    0.9800 h1        1 MOL      0.087238
    137 H58         8.2420   -2.2000   -1.7280 hc        1 MOL      0.034637
    138 H59         8.0150   -3.3820   -0.4980 hc        1 MOL      0.034637
    139 H60         8.9910   -2.3030    2.0260 ha        1 MOL      0.099028
    140 H61        10.3030   -1.3200   -1.9340 ha        1 MOL      0.099028
    141 H62        11.3020   -1.5820    2.8700 ha        1 MOL      0.176627
    142 H63        12.2790   -0.1990   -1.0220 ha        1 MOL      0.176627
    143 H64        13.8020   -0.1020    0.6590 ho        1 MOL      0.391099
    144 N13         6.2100    0.5900   -1.3690 n         1 MOL     -0.451466
    145 C48         6.2550    1.9840   -1.7170 c3        1 MOL      0.040525
    146 C49         5.4240    2.8080   -0.6590 c         1 MOL      0.287547
    147 O21         5.6000    3.9900   -0.3590 o         1 MOL     -0.524224
    148 C50         5.7500    2.2150   -3.1590 c3        1 MOL     -0.245778
    149 C51         4.2570    1.8330   -3.3380 c3        1 MOL     -0.092241
    150 C52         3.7030    2.2030   -4.6750 c         1 MOL      0.714871
    151 O22         3.1340    3.3480   -4.8750 o         1 MOL     -0.731773
    152 O23         3.7560    1.3610   -5.5710 o         1 MOL     -0.731773
    153 H65         5.8890   -0.0440   -2.0840 hn        1 MOL      0.291045
    154 H66         7.3080    2.2700   -1.7300 h1        1 MOL      0.068163
    155 H67         6.4500    1.6960   -3.8190 hc        1 MOL      0.090437
    156 H68         5.8260    3.2870   -3.3620 hc        1 MOL      0.090437
    157 H69         3.6370    2.3690   -2.6260 hc        1 MOL      0.010850
    158 H70         4.0590    0.7770   -3.1480 hc        1 MOL      0.010850
    159 N14         4.5030    2.1520    0.0160 n         1 MOL      0.052710
    160 C53         3.6330    2.6960    1.0840 c3        1 MOL     -0.153109
    161 C54         4.3820    2.5160    2.3920 c         1 MOL      0.427963
    162 O24         4.4320    3.4220    3.1850 o         1 MOL     -0.522667
    163 C55         2.3590    1.8680    1.0640 c3        1 MOL      0.373453
    164 C56         1.5460    1.9730   -0.2110 c3        1 MOL     -0.136608
    165 C57         0.3470    1.0590   -0.1830 c         1 MOL      0.893498
    166 O25        -0.8210    1.5370   -0.2430 o         1 MOL     -0.802408
    167 O26         0.3820   -0.1770   -0.3090 o         1 MOL     -0.802408
    168 H71         4.4420    1.1610   -0.1640 hn        1 MOL      0.110058
    169 H72         3.3990    3.7610    0.9680 h1        1 MOL      0.134348
    170 H73         1.7600    2.2740    1.8750 hc        1 MOL     -0.085551
    171 H74         2.4430    0.8220    1.3390 hc        1 MOL     -0.085551
    172 H75         2.1760    1.6170   -1.0190 hc        1 MOL      0.021295
    173 H76         1.2150    3.0140   -0.3220 hc        1 MOL      0.021295
    174 N15         5.0900    1.3440    2.6010 n         1 MOL     -0.139914
    175 C58         5.9810    1.0920    3.7620 c3        1 MOL     -0.261094
    176 H77         6.9960    0.9080    3.4070 h1        1 MOL      0.093330
    177 H78         5.9790    1.9630    4.4180 h1        1 MOL      0.093330
    178 H79         5.6250    0.2200    4.3120 h1        1 MOL      0.093330
    179 H80         4.9920    0.5320    2.0110 hn        1 MOL      0.124731
    180 Ca1        -2.1660   -0.5840   -1.2320 Ca        1 MOL      1.751654
    181 O27        -0.6020   -0.9310   -3.3810 oh        1 MOL     -0.838548
    182 H81        -0.2100   -1.7850   -3.5630 ho        1 MOL      0.415464
    183 H82        -0.3260   -0.3790   -4.1130 ho        1 MOL      0.415464
@<TRIPOS>BOND
     1    1    2 1   
     2    1    4 1   
     3    1    5 1   
     4    1    6 1   
     5    2    3 2   
     6    2    7 1   
     7    7    8 1   
     8    7   15 1   
     9    8    9 1   
    10    8   11 1   
    11    8   16 1   
    12    9   10 2   
    13    9   19 1   
    14   11   12 1   
    15   11   17 1   
    16   11   18 1   
    17   12   13 1   
    18   12   14 1   
    19   19   20 1   
    20   19   27 1   
    21   20   21 1   
    22   20   23 1   
    23   20   28 1   
    24   21   22 2   
    25   21   38 1   
    26   23   24 1   
    27   23   25 1   
    28   23   29 1   
    29   24   26 1   
    30   24   30 1   
    31   24   31 1   
    32   25   32 1   
    33   25   33 1   
    34   25   34 1   
    35   26   35 1   
    36   26   36 1   
    37   26   37 1   
    38   38   39 1   
    39   38   46 1   
    40   39   40 1   
    41   39   42 1   
    42   39   47 1   
    43   40   41 2   
    44   40   50 1   
    45   42   43 1   
    46   42   48 1   
    47   42   49 1   
    48   43   44 1   
    49   43   45 1   
    50   50   51 1   
    51   50   54 1   
    52   51   52 1   
    53   51   55 1   
    54   51   56 1   
    55   52   53 2   
    56   52   57 1   
    57   57   58 1   
    58   57   65 1   
    59   58   59 1   
    60   58   61 1   
    61   58   66 1   
    62   59   60 2   
    63   59   69 1   
    64   61   62 1   
    65   61   67 1   
    66   61   68 1   
    67   62   63 1   
    68   62   64 1   
    69   69   70 1   
    70   69   73 1   
    71   70   71 1   
    72   70   74 1   
    73   70   75 1   
    74   71   72 2   
    75   71   76 1   
    76   76   77 1   
    77   76   85 1   
    78   77   78 1   
    79   77   80 1   
    80   77   86 1   
    81   78   79 2   
    82   78   93 1   
    83   80   81 1   
    84   80   87 1   
    85   80   88 1   
    86   81   82 1   
    87   81   89 1   
    88   81   90 1   
    89   82   83 1   
    90   82   84 2   
    91   83   91 1   
    92   83   92 1   
    93   93   94 1   
    94   93  100 1   
    95   94   95 1   
    96   94   97 1   
    97   94  101 1   
    98   95   96 2   
    99   95  109 1   
   100   97   98 1   
   101   97   99 1   
   102   97  102 1   
   103   98  103 1   
   104   98  104 1   
   105   98  105 1   
   106   99  106 1   
   107   99  107 1   
   108   99  108 1   
   109  109  110 1   
   110  109  117 1   
   111  110  111 1   
   112  110  113 1   
   113  110  118 1   
   114  111  112 2   
   115  111  123 1   
   116  113  114 1   
   117  113  119 1   
   118  113  120 1   
   119  114  115 1   
   120  114  116 2   
   121  115  121 1   
   122  115  122 1   
   123  123  124 1   
   124  123  135 1   
   125  124  125 1   
   126  124  127 1   
   127  124  136 1   
   128  125  126 2   
   129  125  144 1   
   130  127  128 1   
   131  127  137 1   
   132  127  138 1   
   133  128  129 ar  
   134  128  130 ar  
   135  129  131 ar  
   136  129  139 1   
   137  130  132 ar  
   138  130  140 1   
   139  131  133 ar  
   140  131  141 1   
   141  132  133 ar  
   142  132  142 1   
   143  133  134 1   
   144  134  143 1   
   145  144  145 1   
   146  144  153 1   
   147  145  146 1   
   148  145  148 1   
   149  145  154 1   
   150  146  147 2   
   151  146  159 1   
   152  148  149 1   
   153  148  155 1   
   154  148  156 1   
   155  149  150 1   
   156  149  157 1   
   157  149  158 1   
   158  150  151 1   
   159  150  152 1   
   160  159  160 1   
   161  159  168 1   
   162  160  161 1   
   163  160  163 1   
   164  160  169 1   
   165  161  162 2   
   166  161  174 1   
   167  163  164 1   
   168  163  170 1   
   169  163  171 1   
   170  164  165 1   
   171  164  172 1   
   172  164  173 1   
   173  165  166 1   
   174  165  167 1   
   175  174  175 1   
   176  174  179 1   
   177  175  176 1   
   178  175  177 1   
   179  175  178 1   
   180  181  182 1   
   181  181  183 1   
@<TRIPOS>SUBSTRUCTURE
     1 MOL         1 TEMP              0 ****  ****    0 ROOT
