@<TRIPOS>MOLECULE
MOL
  189   185     1     0     0
SMALL
resp


@<TRIPOS>ATOM
      1 C1         -0.1560    3.1410   -5.2000 c3        1 MOL     -0.328915
      2 C2          0.4600    2.9220   -3.7620 c         1 MOL      0.707533
      3 O1         -0.1160    3.3900   -2.7690 o         1 MOL     -0.657585
      4 H1         -0.4030    4.1950   -5.3330 hc        1 MOL      0.088024
      5 H2          0.5680    2.8400   -5.9570 hc        1 MOL      0.088024
      6 H3         -1.0610    2.5410   -5.3040 hc        1 MOL      0.088024
      7 N1          1.6090    2.2400   -3.5950 n         1 MOL     -0.589073
      8 C3          2.1700    1.8510   -2.3570 c3        1 MOL      0.337344
      9 C4          2.7800    3.0800   -1.6490 c         1 MOL      0.285106
     10 O2          3.8830    3.5680   -2.0240 o         1 MOL     -0.544138
     11 C5          3.2800    0.7700   -2.5560 c3        1 MOL     -0.421320
     12 C6          3.9330    0.2570   -1.2570 c         1 MOL      0.874288
     13 O3          4.8740   -0.5200   -1.3360 o         1 MOL     -0.657811
     14 O4          3.3740    0.5710   -0.1950 o         1 MOL     -0.657811
     15 H4          1.9930    1.8780   -4.4670 hn        1 MOL      0.314960
     16 H5          1.4190    1.2970   -1.7980 h1        1 MOL     -0.003314
     17 H6          4.0380    1.2500   -3.1690 hc        1 MOL      0.082934
     18 H7          2.8340   -0.0990   -3.0350 hc        1 MOL      0.082934
     19 N2          2.1990    3.5410   -0.5570 n         1 MOL     -0.008627
     20 C7          2.5410    4.8860    0.0500 c3        1 MOL     -0.000021
     21 C8          3.5630    4.8030    1.1630 c         1 MOL      0.421105
     22 O5          4.4330    5.6270    1.3390 o         1 MOL     -0.544272
     23 C9          1.2070    5.6050    0.4970 c3        1 MOL     -0.059106
     24 C10         0.3340    6.0620   -0.7250 c3        1 MOL      0.031870
     25 C11         1.1940    6.8580   -1.6940 c3        1 MOL     -0.132813
     26 C12         0.4600    7.9170   -2.6060 c3        1 MOL     -0.037447
     27 N3         -0.7460    7.2710   -3.1900 n4        1 MOL     -0.159987
     28 H8          1.3440    3.1040   -0.2560 hn        1 MOL      0.187729
     29 H9          3.0560    5.5660   -0.6270 h1        1 MOL      0.036159
     30 H10         1.4080    6.4750    1.1240 hc        1 MOL      0.030729
     31 H11         0.6060    4.9590    1.1340 hc        1 MOL      0.030729
     32 H12        -0.4910    6.6740   -0.3600 hc        1 MOL      0.015685
     33 H13        -0.1670    5.2100   -1.1930 hc        1 MOL      0.015685
     34 H14         1.6410    6.1950   -2.4300 hc        1 MOL      0.085799
     35 H15         2.0050    7.3700   -1.1790 hc        1 MOL      0.085799
     36 H16         1.0960    8.2680   -3.4270 hx        1 MOL      0.087054
     37 H17         0.1130    8.7540   -2.0030 hx        1 MOL      0.087054
     38 H18        -0.5140    6.5020   -3.8000 hn        1 MOL      0.268052
     39 H19        -1.2530    6.7750   -2.4670 hn        1 MOL      0.268052
     40 H20        -1.3190    7.9590   -3.6440 hn        1 MOL      0.268052
     41 N4          3.4890    3.7110    1.9230 n         1 MOL     -0.250516
     42 C13         4.4930    3.4690    3.0000 c3        1 MOL     -0.045141
     43 C14         5.7530    2.7480    2.5960 c         1 MOL      0.476657
     44 O6          6.6920    2.7880    3.3680 o         1 MOL     -0.514992
     45 C15         3.7740    2.8060    4.2210 c3        1 MOL     -0.231310
     46 C16         2.8360    1.7190    3.8210 c         1 MOL      0.793009
     47 O7          3.0050    1.2070    2.7000 o         1 MOL     -0.731608
     48 O8          1.9100    1.3170    4.6180 o         1 MOL     -0.731608
     49 H21         2.7040    3.0800    1.8670 hn        1 MOL      0.212986
     50 H22         4.7980    4.4620    3.3420 h1        1 MOL      0.097325
     51 H23         3.1620    3.5790    4.6850 hc        1 MOL      0.067174
     52 H24         4.4910    2.5140    5.0010 hc        1 MOL      0.067174
     53 N5          5.7160    2.1460    1.4030 n         1 MOL     -0.103501
     54 C17         6.8080    1.5560    0.6860 c3        1 MOL     -0.191879
     55 C18         7.2430    0.3150    1.3940 c         1 MOL      0.474412
     56 O9          8.2560    0.2270    2.0800 o         1 MOL     -0.542332
     57 H25         4.8390    2.0890    0.9150 hn        1 MOL      0.168159
     58 H26         7.5760    2.3290    0.6200 h1        1 MOL      0.093829
     59 H27         6.5630    1.2170   -0.3110 h1        1 MOL      0.093829
     60 N6          6.3610   -0.6880    1.3090 n         1 MOL     -0.050983
     61 C19         6.6620   -2.0080    1.8240 c3        1 MOL      0.006263
     62 C20         6.9780   -3.0190    0.6700 c         1 MOL      0.373067
     63 O10         7.4930   -4.0670    0.9420 o         1 MOL     -0.509122
     64 C21         5.6110   -2.6400    2.8070 c3        1 MOL     -0.166838
     65 C22         4.1850   -2.4310    2.3670 c         1 MOL      0.769243
     66 O11         3.3890   -1.9640    3.1430 o         1 MOL     -0.723431
     67 O12         3.8910   -2.5440    1.1720 o         1 MOL     -0.723431
     68 H28         5.5640   -0.5200    0.7090 hn        1 MOL     -0.078916
     69 H29         7.5010   -1.9740    2.5130 h1        1 MOL      0.104686
     70 H30         5.7490   -2.1770    3.7850 hc        1 MOL      0.053125
     71 H31         5.7680   -3.7030    2.9620 hc        1 MOL      0.053125
     72 N7          6.6540   -2.6700   -0.5800 n         1 MOL     -0.297438
     73 C23         6.7040   -3.5900   -1.7240 c3        1 MOL     -0.062225
     74 C24         5.3350   -4.2510   -2.0890 c         1 MOL      0.474069
     75 O13         5.3070   -5.1180   -2.9070 o         1 MOL     -0.562800
     76 H32         6.1820   -1.7870   -0.6950 hn        1 MOL      0.241651
     77 H33         7.4160   -4.3940   -1.5710 h1        1 MOL      0.086623
     78 H34         7.0390   -3.0410   -2.6060 h1        1 MOL      0.086623
     79 N8          4.2210   -3.8550   -1.4430 n         1 MOL     -0.167866
     80 C25         2.9060   -4.4050   -1.5030 c3        1 MOL     -0.175603
     81 C26         1.8060   -3.3200   -1.2950 c         1 MOL      0.687431
     82 O14         2.0110   -2.2440   -0.7050 o         1 MOL     -0.662221
     83 C27         2.6750   -5.4970   -0.4490 c3        1 MOL      0.509487
     84 C28         3.4160   -6.8800   -0.5630 c3        1 MOL     -0.453943
     85 O15         2.7390   -5.0020    0.9380 oh        1 MOL     -0.628061
     86 H35         4.3470   -3.0180   -0.8940 hn        1 MOL      0.181635
     87 H36         2.8240   -4.9690   -2.4350 h1        1 MOL      0.081564
     88 H37         1.6430   -5.7780   -0.6510 h1        1 MOL     -0.054456
     89 H38         3.2580   -4.1940    0.8300 ho        1 MOL      0.383669
     90 H39         3.3270   -7.4680    0.3450 hc        1 MOL      0.118915
     91 H40         3.2120   -7.3580   -1.5150 hc        1 MOL      0.118915
     92 H41         4.4410   -6.5110   -0.6280 hc        1 MOL      0.118915
     93 N9          0.5990   -3.6120   -1.8850 n         1 MOL     -0.689672
     94 C29        -0.4990   -2.6290   -2.0610 c3        1 MOL      0.169798
     95 C30        -1.7340   -3.2160   -1.4350 c         1 MOL      0.554851
     96 O16        -2.0620   -4.3200   -1.8480 o         1 MOL     -0.564561
     97 C31        -0.6740   -2.4930   -3.5700 c3        1 MOL      0.176158
     98 C32         0.5740   -1.7410   -4.2390 c3        1 MOL      0.234592
     99 C33        -1.8360   -1.6650   -3.9880 c3        1 MOL     -0.495051
    100 C34         0.7300   -2.0090   -5.7310 c3        1 MOL     -0.309309
    101 H42         0.5200   -4.4530   -2.4300 hn        1 MOL      0.325234
    102 H43        -0.3220   -1.6460   -1.6120 h1        1 MOL      0.041773
    103 H44        -0.6990   -3.5220   -3.9400 hc        1 MOL      0.004474
    104 H45         1.4830   -2.0990   -3.7530 hc        1 MOL     -0.022287
    105 H46         0.5580   -0.6560   -4.1160 hc        1 MOL     -0.022287
    106 H47        -2.7240   -2.1890   -3.6330 hc        1 MOL      0.095833
    107 H48        -1.8180   -0.6470   -3.6060 hc        1 MOL      0.095833
    108 H49        -1.9720   -1.7560   -5.0620 hc        1 MOL      0.095833
    109 H50         0.8330   -3.0710   -5.9640 hc        1 MOL      0.063249
    110 H51        -0.1690   -1.5900   -6.1980 hc        1 MOL      0.063249
    111 H52         1.6180   -1.4850   -6.0860 hc        1 MOL      0.063249
    112 N10        -2.4430   -2.4250   -0.5960 n         1 MOL     -0.266877
    113 C35        -3.7630   -2.8190    0.0690 c3        1 MOL      0.028805
    114 C36        -4.9570   -2.3060   -0.6930 c         1 MOL      0.348629
    115 O17        -4.8920   -1.4880   -1.5720 o         1 MOL     -0.365540
    116 C37        -3.7880   -2.3510    1.5360 c3        1 MOL      0.131203
    117 C38        -2.5940   -2.7040    2.4190 c3        1 MOL     -0.416049
    118 O18        -3.7790   -0.8810    1.5530 oh        1 MOL     -0.304114
    119 H53        -1.9890   -1.5580   -0.3390 hn        1 MOL      0.246994
    120 H54        -3.8050   -3.9040    0.0920 h1        1 MOL      0.073924
    121 H55        -4.7370   -2.6810    1.9680 h1        1 MOL      0.012649
    122 H56        -3.6070   -0.5580    2.4390 ho        1 MOL      0.353825
    123 H57        -2.3180   -3.7600    2.3990 hc        1 MOL      0.116393
    124 H58        -1.7530   -2.1210    2.0260 hc        1 MOL      0.116393
    125 H59        -2.8750   -2.3320    3.4050 hc        1 MOL      0.116393
    126 N11        -6.1560   -2.7330   -0.3460 n         1 MOL     -0.214803
    127 C39        -7.4280   -2.1570   -0.7740 c3        1 MOL     -0.117511
    128 C40        -7.6410   -0.7300   -0.4260 c         1 MOL      0.349159
    129 O19        -8.0330    0.0150   -1.3280 o         1 MOL     -0.472733
    130 C41        -8.6990   -2.8630   -0.2000 c3        1 MOL      0.162627
    131 C42        -9.0430   -4.2810   -0.6390 c3        1 MOL     -0.338319
    132 O20        -8.5480   -2.8570    1.2070 oh        1 MOL     -0.674107
    133 H60        -6.1950   -3.5510    0.2550 hn        1 MOL      0.245526
    134 H61        -7.5390   -2.2020   -1.8530 h1        1 MOL      0.149794
    135 H62        -9.6050   -2.2550   -0.2910 h1        1 MOL      0.089593
    136 H63        -9.2480   -3.3940    1.5640 ho        1 MOL      0.435254
    137 H64        -9.7080   -4.6100    0.1600 hc        1 MOL      0.109331
    138 H65        -9.5540   -4.3850   -1.5880 hc        1 MOL      0.109331
    139 H66        -8.1150   -4.8520   -0.7130 hc        1 MOL      0.109331
    140 N12        -7.1330   -0.3010    0.7560 n         1 MOL     -0.078353
    141 C43        -7.1760    1.0530    1.2100 c3        1 MOL     -0.134886
    142 C44        -6.2930    1.8760    0.2700 c         1 MOL      0.356225
    143 O21        -6.6920    2.9530   -0.2160 o         1 MOL     -0.485615
    144 C45        -6.6040    1.0830    2.5920 c3        1 MOL      0.005364
    145 C46        -7.4430    0.4370    3.6740 c3        1 MOL      0.048286
    146 C47        -6.8800    0.5370    5.0810 c3        1 MOL      0.047123
    147 C48        -7.7560    0.1260    6.2050 c3        1 MOL      0.069177
    148 N13        -9.0120    0.9080    6.2310 n4        1 MOL     -0.346226
    149 H67        -6.8610   -1.0880    1.3220 hn        1 MOL      0.200914
    150 H68        -8.2330    1.3250    1.1700 h1        1 MOL      0.124497
    151 H69        -6.3830    2.0980    2.9430 hc        1 MOL      0.000739
    152 H70        -5.6330    0.5870    2.5920 hc        1 MOL      0.000739
    153 H71        -7.5480   -0.6190    3.4210 hc        1 MOL     -0.030090
    154 H72        -8.4650    0.8000    3.6670 hc        1 MOL     -0.030090
    155 H73        -6.6880    1.5860    5.3050 hc        1 MOL      0.017920
    156 H74        -5.9120    0.0510    5.2050 hc        1 MOL      0.017920
    157 H75        -7.2430    0.2760    7.1550 hx        1 MOL      0.070747
    158 H76        -7.9240   -0.9520    6.1580 hx        1 MOL      0.070747
    159 H77        -9.4990    0.6320    7.0720 hn        1 MOL      0.294932
    160 H78        -8.7870    1.8990    6.2620 hn        1 MOL      0.294932
    161 H79        -9.6500    0.8520    5.4440 hn        1 MOL      0.294932
    162 N14        -5.0660    1.3830   -0.1280 n         1 MOL      0.106514
    163 C49        -4.1270    2.0760   -0.9970 c3        1 MOL     -0.268263
    164 C50        -4.6590    2.1010   -2.4160 c         1 MOL      0.459220
    165 O22        -4.5570    3.1140   -3.1070 o         1 MOL     -0.582987
    166 C51        -2.7330    1.3520   -0.9490 c3        1 MOL      0.234064
    167 C52        -1.9570    1.9360    0.2150 c3        1 MOL     -0.332581
    168 C53        -0.5610    1.3580    0.2880 c         1 MOL      0.688095
    169 O23        -0.2720    0.2080   -0.0770 o         1 MOL     -0.727152
    170 O24         0.3440    1.9910    0.9120 o         1 MOL     -0.727152
    171 H80        -4.8050    0.4450    0.1450 hn        1 MOL     -0.189826
    172 H81        -4.1100    3.0920   -0.6010 h1        1 MOL      0.124577
    173 H82        -2.2450    1.6130   -1.8860 hc        1 MOL      0.009063
    174 H83        -2.8420    0.2650   -0.9040 hc        1 MOL      0.009063
    175 H84        -2.4880    1.7700    1.1500 hc        1 MOL      0.079124
    176 H85        -1.8830    3.0190    0.0660 hc        1 MOL      0.079124
    177 N15        -5.3440    1.0990   -2.8980 n         1 MOL     -0.028494
    178 C54        -5.9240    1.1270   -4.2060 c3        1 MOL     -0.301453
    179 H86        -6.0700    2.1620   -4.5160 h1        1 MOL      0.108017
    180 H87        -5.2580    0.6280   -4.9110 h1        1 MOL      0.108017
    181 H88        -6.8850    0.6150   -4.1890 h1        1 MOL      0.108017
    182 H89        -5.4840    0.2180   -2.4340 hn        1 MOL      0.149803
    183 Ca1         1.8330   -0.6140    1.3600 Ca        1 MOL      1.812966
    184 O25         0.2430   -0.4820    3.6490 oh        1 MOL     -0.877895
    185 H90         0.8340    0.0290    4.2060 ho        1 MOL      0.403055
    186 H91        -0.4540   -0.7700    4.2440 ho        1 MOL      0.403055
    187 O26         0.7540   -3.1070    2.0350 oh        1 MOL     -0.877895
    188 H92         0.1750   -3.3300    2.7670 ho        1 MOL      0.403055
    189 H93         1.3500   -3.8460    1.9780 ho        1 MOL      0.403055
@<TRIPOS>BOND
     1    1    2 1   
     2    1    4 1   
     3    1    5 1   
     4    1    6 1   
     5    2    3 2   
     6    2    7 1   
     7    7    8 1   
     8    7   15 1   
     9    8    9 1   
    10    8   11 1   
    11    8   16 1   
    12    9   10 2   
    13    9   19 1   
    14   11   12 1   
    15   11   17 1   
    16   11   18 1   
    17   12   13 1   
    18   12   14 1   
    19   19   20 1   
    20   19   28 1   
    21   20   21 1   
    22   20   23 1   
    23   20   29 1   
    24   21   22 2   
    25   21   41 1   
    26   23   24 1   
    27   23   30 1   
    28   23   31 1   
    29   24   25 1   
    30   24   32 1   
    31   24   33 1   
    32   25   26 1   
    33   25   34 1   
    34   25   35 1   
    35   26   27 1   
    36   26   36 1   
    37   26   37 1   
    38   27   38 1   
    39   27   39 1   
    40   27   40 1   
    41   41   42 1   
    42   41   49 1   
    43   42   43 1   
    44   42   45 1   
    45   42   50 1   
    46   43   44 2   
    47   43   53 1   
    48   45   46 1   
    49   45   51 1   
    50   45   52 1   
    51   46   47 1   
    52   46   48 1   
    53   53   54 1   
    54   53   57 1   
    55   54   55 1   
    56   54   58 1   
    57   54   59 1   
    58   55   56 2   
    59   55   60 1   
    60   60   61 1   
    61   60   68 1   
    62   61   62 1   
    63   61   64 1   
    64   61   69 1   
    65   62   63 2   
    66   62   72 1   
    67   64   65 1   
    68   64   70 1   
    69   64   71 1   
    70   65   66 1   
    71   65   67 1   
    72   72   73 1   
    73   72   76 1   
    74   73   74 1   
    75   73   77 1   
    76   73   78 1   
    77   74   75 2   
    78   74   79 1   
    79   79   80 1   
    80   79   86 1   
    81   80   81 1   
    82   80   83 1   
    83   80   87 1   
    84   81   82 2   
    85   81   93 1   
    86   83   84 1   
    87   83   85 1   
    88   83   88 1   
    89   84   90 1   
    90   84   91 1   
    91   84   92 1   
    92   85   89 1   
    93   93   94 1   
    94   93  101 1   
    95   94   95 1   
    96   94   97 1   
    97   94  102 1   
    98   95   96 2   
    99   95  112 1   
   100   97   98 1   
   101   97   99 1   
   102   97  103 1   
   103   98  100 1   
   104   98  104 1   
   105   98  105 1   
   106   99  106 1   
   107   99  107 1   
   108   99  108 1   
   109  100  109 1   
   110  100  110 1   
   111  100  111 1   
   112  112  113 1   
   113  112  119 1   
   114  113  114 1   
   115  113  116 1   
   116  113  120 1   
   117  114  115 2   
   118  114  126 1   
   119  116  117 1   
   120  116  118 1   
   121  116  121 1   
   122  117  123 1   
   123  117  124 1   
   124  117  125 1   
   125  118  122 1   
   126  126  127 1   
   127  126  133 1   
   128  127  128 1   
   129  127  130 1   
   130  127  134 1   
   131  128  129 2   
   132  128  140 1   
   133  130  131 1   
   134  130  132 1   
   135  130  135 1   
   136  131  137 1   
   137  131  138 1   
   138  131  139 1   
   139  132  136 1   
   140  140  141 1   
   141  140  149 1   
   142  141  142 1   
   143  141  144 1   
   144  141  150 1   
   145  142  143 2   
   146  142  162 1   
   147  144  145 1   
   148  144  151 1   
   149  144  152 1   
   150  145  146 1   
   151  145  153 1   
   152  145  154 1   
   153  146  147 1   
   154  146  155 1   
   155  146  156 1   
   156  147  148 1   
   157  147  157 1   
   158  147  158 1   
   159  148  159 1   
   160  148  160 1   
   161  148  161 1   
   162  162  163 1   
   163  162  171 1   
   164  163  164 1   
   165  163  166 1   
   166  163  172 1   
   167  164  165 2   
   168  164  177 1   
   169  166  167 1   
   170  166  173 1   
   171  166  174 1   
   172  167  168 1   
   173  167  175 1   
   174  167  176 1   
   175  168  169 1   
   176  168  170 1   
   177  177  178 1   
   178  177  182 1   
   179  178  179 1   
   180  178  180 1   
   181  178  181 1   
   182  184  185 1   
   183  184  186 1   
   184  187  188 1   
   185  187  189 1   
@<TRIPOS>SUBSTRUCTURE
     1 MOL         1 TEMP              0 ****  ****    0 ROOT
