@<TRIPOS>MOLECULE
MOL
  189   185     1     0     0
SMALL
resp


@<TRIPOS>ATOM
      1 C1         -0.8520    1.3710    6.6470 c3        1 MOL     -0.385956
      2 C2         -0.9140    1.2950    5.0840 c         1 MOL      0.683079
      3 O1          0.1330    1.4380    4.4260 o         1 MOL     -0.616822
      4 H1          0.1300    1.0410    6.9860 hc        1 MOL      0.102320
      5 H2         -1.0200    2.4000    6.9680 hc        1 MOL      0.102320
      6 H3         -1.6190    0.7270    7.0740 hc        1 MOL      0.102320
      7 N1         -2.0990    1.2170    4.4870 n         1 MOL     -0.491564
      8 C3         -2.3580    1.3870    3.0080 c3        1 MOL      0.089545
      9 C4         -2.4820    2.8860    2.7500 c         1 MOL      0.390940
     10 O2         -2.8940    3.7050    3.6180 o         1 MOL     -0.563570
     11 C5         -3.6980    0.7040    2.6330 c3        1 MOL     -0.127139
     12 C6         -4.1420    0.8570    1.1780 c         1 MOL      0.598297
     13 O3         -3.2660    1.0090    0.2780 o         1 MOL     -0.605392
     14 O4         -5.3930    0.7430    1.0460 o         1 MOL     -0.605392
     15 H4         -2.9030    1.1290    5.0820 hn        1 MOL      0.293854
     16 H5         -1.4980    1.0270    2.4630 h1        1 MOL      0.063219
     17 H6         -4.5220    1.0120    3.2820 hc        1 MOL      0.048308
     18 H7         -3.5490   -0.3720    2.7860 hc        1 MOL      0.048308
     19 N2         -2.1660    3.2240    1.4730 n         1 MOL      0.054454
     20 C7         -2.0420    4.5420    0.8760 c3        1 MOL     -0.322251
     21 C8         -2.9120    4.7730   -0.3350 c         1 MOL      0.690131
     22 O5         -2.7670    5.8040   -1.0390 o         1 MOL     -0.572686
     23 C9         -0.5720    4.7620    0.4930 c3        1 MOL      0.208180
     24 C10         0.2050    5.0350    1.7770 c3        1 MOL      0.030064
     25 C11         1.7610    5.3360    1.4630 c3        1 MOL     -0.272641
     26 C12         2.5500    4.9420    2.6630 c3        1 MOL     -0.013061
     27 N3          2.3690    5.8840    3.7590 n4        1 MOL     -0.252410
     28 H8         -1.7430    2.4480    0.9850 hn        1 MOL      0.096730
     29 H9         -2.3510    5.3230    1.5770 h1        1 MOL      0.099004
     30 H10        -0.3950    5.6480   -0.1190 hc        1 MOL     -0.010170
     31 H11        -0.1480    3.9000   -0.0300 hc        1 MOL     -0.010170
     32 H12         0.0650    4.1450    2.3820 hc        1 MOL     -0.007288
     33 H13        -0.2670    5.8950    2.2430 hc        1 MOL     -0.007288
     34 H14         1.8330    6.4040    1.2530 hc        1 MOL      0.097083
     35 H15         2.0750    4.8970    0.5170 hc        1 MOL      0.097083
     36 H16         3.5770    4.9120    2.3130 hx        1 MOL      0.116183
     37 H17         2.3340    3.9130    2.9690 hx        1 MOL      0.116183
     38 H18         1.4130    5.9270    4.0720 hn        1 MOL      0.300077
     39 H19         2.8730    5.7670    4.6200 hn        1 MOL      0.300077
     40 H20         2.5140    6.8370    3.4460 hn        1 MOL      0.300077
     41 N4         -3.8200    3.8650   -0.7190 n         1 MOL     -0.579838
     42 C13        -4.5150    3.9250   -2.0430 c3        1 MOL     -0.056097
     43 C14        -6.0320    3.5850   -1.8540 c         1 MOL      0.568699
     44 O6         -6.7800    3.9630   -2.7040 o         1 MOL     -0.521955
     45 C15        -3.9420    2.8770   -3.0320 c3        1 MOL      0.327333
     46 C16        -2.4910    2.8680   -3.2790 c         1 MOL      0.512055
     47 O7         -1.7190    2.1030   -2.6760 o         1 MOL     -0.614615
     48 O8         -2.0390    3.7640   -4.0140 o         1 MOL     -0.614615
     49 H21        -3.7870    2.9840   -0.2290 hn        1 MOL      0.242345
     50 H22        -4.5220    4.9280   -2.4450 h1        1 MOL      0.099706
     51 H23        -4.3220    3.0860   -4.0300 hc        1 MOL     -0.069149
     52 H24        -4.2650    1.8940   -2.7080 hc        1 MOL     -0.069149
     53 N5         -6.3670    2.8860   -0.7050 n         1 MOL     -0.380860
     54 C17        -7.6510    2.2080   -0.4980 c3        1 MOL     -0.030422
     55 C18        -7.7450    0.9310   -1.3200 c         1 MOL      0.401907
     56 O9         -8.6620    0.8640   -2.1680 o         1 MOL     -0.539411
     57 H25        -5.5740    2.6420   -0.1240 hn        1 MOL      0.213595
     58 H26        -8.4390    2.8920   -0.8090 h1        1 MOL      0.066828
     59 H27        -7.7560    2.0250    0.5780 h1        1 MOL      0.066828
     60 N6         -6.8020   -0.0020   -1.2200 n         1 MOL     -0.257142
     61 C19        -6.8810   -1.2430   -2.0230 c3        1 MOL      0.063175
     62 C20        -6.7990   -2.5530   -1.2290 c         1 MOL      0.362752
     63 O10        -6.7420   -3.6240   -1.7800 o         1 MOL     -0.503537
     64 C21        -5.8080   -1.2060   -3.0830 c3        1 MOL     -0.291205
     65 C22        -4.4370   -1.0460   -2.4370 c         1 MOL      0.779247
     66 O11        -4.2050   -1.1590   -1.2340 o         1 MOL     -0.810740
     67 O12        -3.4830   -0.7490   -3.1530 o         1 MOL     -0.810740
     68 H28        -6.0800   -0.0140   -0.5190 hn        1 MOL      0.304816
     69 H29        -7.8260   -1.2490   -2.5650 h1        1 MOL      0.078385
     70 H30        -6.0250   -0.3190   -3.6790 hc        1 MOL      0.103509
     71 H31        -5.9850   -2.0970   -3.6710 hc        1 MOL      0.103509
     72 N7         -6.7820   -2.4840    0.1000 n         1 MOL     -0.290895
     73 C23        -6.6750   -3.6950    0.9120 c3        1 MOL      0.030009
     74 C24        -5.3100   -4.3450    0.9470 c         1 MOL      0.508135
     75 O13        -5.2560   -5.4090    1.5470 o         1 MOL     -0.569200
     76 H32        -6.8900   -1.5780    0.5170 hn        1 MOL      0.183582
     77 H33        -7.4730   -4.3990    0.6860 h1        1 MOL      0.065747
     78 H34        -6.8780   -3.4370    1.9540 h1        1 MOL      0.065747
     79 N8         -4.1940   -3.7280    0.4350 n         1 MOL     -0.500782
     80 C25        -2.8660   -4.3520    0.4670 c3        1 MOL      0.286309
     81 C26        -1.6330   -3.4370    0.7280 c         1 MOL      0.329611
     82 O14        -1.6540   -2.2570    0.4580 o         1 MOL     -0.589027
     83 C27        -2.5600   -5.1310   -0.8090 c3        1 MOL      0.329395
     84 C28        -3.0070   -6.5610   -0.7040 c3        1 MOL     -0.493100
     85 O15        -2.9580   -4.6110   -1.9870 oh        1 MOL     -0.569200
     86 H35        -4.2810   -2.8040    0.0400 hn        1 MOL      0.370876
     87 H36        -2.8570   -4.9700    1.3650 h1        1 MOL      0.025343
     88 H37        -1.4750   -5.0990   -0.9590 h1        1 MOL     -0.018010
     89 H38        -3.7050   -5.1160   -2.3320 ho        1 MOL      0.403715
     90 H39        -2.9320   -7.0680   -1.6640 hc        1 MOL      0.128666
     91 H40        -2.4490   -6.9940    0.1300 hc        1 MOL      0.128666
     92 H41        -4.0690   -6.5600   -0.4360 hc        1 MOL      0.128666
     93 N9         -0.5130   -3.9750    1.2220 n         1 MOL     -0.350141
     94 C29         0.6630   -3.1950    1.5460 c3        1 MOL      0.029318
     95 C30         1.8540   -3.6790    0.6780 c         1 MOL      0.286042
     96 O16         2.3360   -4.8430    0.6880 o         1 MOL     -0.508225
     97 C31         0.9860   -3.3290    3.0990 c3        1 MOL      0.159363
     98 C32         0.2270   -2.3060    4.0270 c3        1 MOL     -0.120345
     99 C33         2.4570   -3.1270    3.3070 c3        1 MOL     -0.290908
    100 C34        -1.3170   -2.3460    3.7970 c3        1 MOL     -0.000099
    101 H42        -0.4700   -4.9350    1.5060 hn        1 MOL      0.257208
    102 H43         0.5750   -2.1290    1.3580 h1        1 MOL      0.162217
    103 H44         0.6950   -4.3260    3.4240 hc        1 MOL      0.009072
    104 H45         0.4920   -1.3330    3.6050 hc        1 MOL      0.043047
    105 H46         0.5280   -2.4760    5.0650 hc        1 MOL      0.043047
    106 H47         2.7120   -2.1830    2.8170 hc        1 MOL      0.068462
    107 H48         2.4540   -3.1250    4.4010 hc        1 MOL      0.068462
    108 H49         3.0300   -3.9690    2.9380 hc        1 MOL      0.068462
    109 H50        -1.8670   -1.7630    4.5250 hc        1 MOL     -0.006621
    110 H51        -1.6390   -1.8910    2.8660 hc        1 MOL     -0.006621
    111 H52        -1.6080   -3.3970    3.8070 hc        1 MOL     -0.006621
    112 N10         2.3260   -2.7960   -0.2480 n         1 MOL     -0.018091
    113 C35         3.5310   -2.9240   -1.0940 c3        1 MOL     -0.090634
    114 C36         4.8320   -2.6290   -0.3190 c         1 MOL      0.374144
    115 O17         4.8480   -2.1650    0.7660 o         1 MOL     -0.256433
    116 C37         3.5070   -1.8670   -2.2260 c3        1 MOL      0.185864
    117 C38         2.3690   -2.0870   -3.2220 c3        1 MOL     -0.006315
    118 O18         3.3040   -0.6760   -1.5870 oh        1 MOL     -0.507246
    119 H53         1.8710   -1.8930   -0.2190 hn        1 MOL      0.053227
    120 H54         3.6090   -3.9360   -1.4940 h1        1 MOL      0.073813
    121 H55         4.4700   -1.8830   -2.7330 h1        1 MOL      0.012565
    122 H56         2.3840   -0.7830   -1.3450 ho        1 MOL      0.322413
    123 H57         2.4420   -1.3630   -4.0310 hc        1 MOL     -0.002058
    124 H58         2.5480   -3.0260   -3.7360 hc        1 MOL     -0.002058
    125 H59         1.4080   -2.1340   -2.6940 hc        1 MOL     -0.002058
    126 N11         5.9600   -2.8850   -0.9950 n         1 MOL     -0.392720
    127 C39         7.2830   -2.3540   -0.6410 c3        1 MOL     -0.029744
    128 C40         7.3460   -0.8360   -0.3050 c         1 MOL      0.341072
    129 O19         8.0640   -0.4600    0.6070 o         1 MOL     -0.482820
    130 C41         8.2370   -2.4140   -1.9120 c3        1 MOL      0.165071
    131 C42         8.7340   -3.8310   -2.1540 c3        1 MOL     -0.266243
    132 O20         7.6130   -1.9420   -3.0690 oh        1 MOL     -0.599996
    133 H60         5.8990   -3.2950   -1.9150 hn        1 MOL      0.308517
    134 H61         7.6900   -2.9690    0.1620 h1        1 MOL      0.148709
    135 H62         9.1130   -1.7870   -1.6990 h1        1 MOL      0.057688
    136 H63         8.3330   -1.6440   -3.6200 ho        1 MOL      0.419760
    137 H64         9.4670   -3.9180   -2.9440 hc        1 MOL      0.082817
    138 H65         9.1500   -4.2070   -1.2240 hc        1 MOL      0.082817
    139 H66         7.8400   -4.4240   -2.3480 hc        1 MOL      0.082817
    140 N12         6.4560   -0.0080   -0.8990 n         1 MOL     -0.280244
    141 C43         6.2550    1.4290   -0.5470 c3        1 MOL     -0.252493
    142 C44         5.2850    1.7690    0.4690 c         1 MOL      0.703820
    143 O21         5.0400    2.9330    0.7280 o         1 MOL     -0.604173
    144 C45         5.8880    2.1540   -1.9220 c3        1 MOL     -0.035160
    145 C46         7.0200    2.0760   -2.9220 c3        1 MOL      0.254772
    146 C47         6.6700    2.8650   -4.1680 c3        1 MOL     -0.212424
    147 C48         7.8660    2.7750   -5.1670 c3        1 MOL      0.080802
    148 N13         8.9890    3.6530   -4.7880 n4        1 MOL     -0.249077
    149 H67         5.8450   -0.4240   -1.5880 hn        1 MOL      0.323061
    150 H68         7.2590    1.7280   -0.2320 h1        1 MOL      0.159929
    151 H69         5.8650    3.2280   -1.7410 hc        1 MOL      0.034787
    152 H70         4.9330    1.8560   -2.3650 hc        1 MOL      0.034787
    153 H71         7.2340    1.0730   -3.2880 hc        1 MOL     -0.060281
    154 H72         7.9350    2.4990   -2.4910 hc        1 MOL     -0.060281
    155 H73         6.4540    3.8990   -3.8980 hc        1 MOL      0.092048
    156 H74         5.8300    2.3280   -4.6240 hc        1 MOL      0.092048
    157 H75         7.5630    3.0290   -6.1850 hx        1 MOL      0.063168
    158 H76         8.3090    1.7770   -5.1650 hx        1 MOL      0.063168
    159 H77         8.6730    4.6010   -4.8990 hn        1 MOL      0.242962
    160 H78         9.3880    3.5200   -3.8750 hn        1 MOL      0.242962
    161 H79         9.7320    3.6390   -5.4650 hn        1 MOL      0.242962
    162 N14         4.7560    0.7400    1.1610 n         1 MOL     -0.216885
    163 C49         3.9270    0.9720    2.3360 c3        1 MOL     -0.041843
    164 C50         4.5740    0.2480    3.5540 c         1 MOL      0.503768
    165 O22         4.4410    0.7480    4.6280 o         1 MOL     -0.536930
    166 C51         2.5370    0.5170    1.9890 c3        1 MOL      0.225014
    167 C52         1.8600    1.4130    0.9610 c3        1 MOL      0.081654
    168 C53         0.7680    0.7340    0.1290 c         1 MOL      0.575282
    169 O23         0.9360   -0.3850   -0.3890 o         1 MOL     -0.662923
    170 O24        -0.3330    1.2190    0.0100 o         1 MOL     -0.662923
    171 H80         4.7890   -0.1760    0.7450 hn        1 MOL     -0.148231
    172 H81         3.8680    2.0490    2.5240 h1        1 MOL      0.007427
    173 H82         1.8920    0.5240    2.8650 hc        1 MOL     -0.037466
    174 H83         2.5530   -0.5050    1.6110 hc        1 MOL     -0.037466
    175 H84         2.4920    1.9230    0.2340 hc        1 MOL      0.013011
    176 H85         1.4230    2.2220    1.5310 hc        1 MOL      0.013011
    177 N15         5.3140   -0.8780    3.4030 n         1 MOL     -0.247701
    178 C54         5.8780   -1.7980    4.4410 c3        1 MOL     -0.204374
    179 H86         6.4630   -2.5790    3.9550 h1        1 MOL      0.099103
    180 H87         6.5190   -1.2330    5.1190 h1        1 MOL      0.099103
    181 H88         5.0640   -2.2530    5.0050 h1        1 MOL      0.099103
    182 H89         5.3010   -1.2540    2.4590 hn        1 MOL      0.222369
    183 Ca1        -1.7250   -0.2570   -1.3630 Ca        1 MOL      1.716020
    184 O25        -1.3620   -2.5760   -2.5620 oh        1 MOL     -0.684670
    185 H90        -0.7700   -2.8120   -3.2730 ho        1 MOL      0.352643
    186 H91        -2.0470   -3.2530   -2.5850 ho        1 MOL      0.352643
    187 O26        -0.2650   -0.0110   -3.7740 oh        1 MOL     -0.684670
    188 H92         0.1650    0.8440   -3.7660 ho        1 MOL      0.352643
    189 H93        -0.6180   -0.0950   -4.6520 ho        1 MOL      0.352643
@<TRIPOS>BOND
     1    1    2 1   
     2    1    4 1   
     3    1    5 1   
     4    1    6 1   
     5    2    3 2   
     6    2    7 1   
     7    7    8 1   
     8    7   15 1   
     9    8    9 1   
    10    8   11 1   
    11    8   16 1   
    12    9   10 2   
    13    9   19 1   
    14   11   12 1   
    15   11   17 1   
    16   11   18 1   
    17   12   13 1   
    18   12   14 1   
    19   19   20 1   
    20   19   28 1   
    21   20   21 1   
    22   20   23 1   
    23   20   29 1   
    24   21   22 2   
    25   21   41 1   
    26   23   24 1   
    27   23   30 1   
    28   23   31 1   
    29   24   25 1   
    30   24   32 1   
    31   24   33 1   
    32   25   26 1   
    33   25   34 1   
    34   25   35 1   
    35   26   27 1   
    36   26   36 1   
    37   26   37 1   
    38   27   38 1   
    39   27   39 1   
    40   27   40 1   
    41   41   42 1   
    42   41   49 1   
    43   42   43 1   
    44   42   45 1   
    45   42   50 1   
    46   43   44 2   
    47   43   53 1   
    48   45   46 1   
    49   45   51 1   
    50   45   52 1   
    51   46   47 1   
    52   46   48 1   
    53   53   54 1   
    54   53   57 1   
    55   54   55 1   
    56   54   58 1   
    57   54   59 1   
    58   55   56 2   
    59   55   60 1   
    60   60   61 1   
    61   60   68 1   
    62   61   62 1   
    63   61   64 1   
    64   61   69 1   
    65   62   63 2   
    66   62   72 1   
    67   64   65 1   
    68   64   70 1   
    69   64   71 1   
    70   65   66 1   
    71   65   67 1   
    72   72   73 1   
    73   72   76 1   
    74   73   74 1   
    75   73   77 1   
    76   73   78 1   
    77   74   75 2   
    78   74   79 1   
    79   79   80 1   
    80   79   86 1   
    81   80   81 1   
    82   80   83 1   
    83   80   87 1   
    84   81   82 2   
    85   81   93 1   
    86   83   84 1   
    87   83   85 1   
    88   83   88 1   
    89   84   90 1   
    90   84   91 1   
    91   84   92 1   
    92   85   89 1   
    93   93   94 1   
    94   93  101 1   
    95   94   95 1   
    96   94   97 1   
    97   94  102 1   
    98   95   96 2   
    99   95  112 1   
   100   97   98 1   
   101   97   99 1   
   102   97  103 1   
   103   98  100 1   
   104   98  104 1   
   105   98  105 1   
   106   99  106 1   
   107   99  107 1   
   108   99  108 1   
   109  100  109 1   
   110  100  110 1   
   111  100  111 1   
   112  112  113 1   
   113  112  119 1   
   114  113  114 1   
   115  113  116 1   
   116  113  120 1   
   117  114  115 2   
   118  114  126 1   
   119  116  117 1   
   120  116  118 1   
   121  116  121 1   
   122  117  123 1   
   123  117  124 1   
   124  117  125 1   
   125  118  122 1   
   126  126  127 1   
   127  126  133 1   
   128  127  128 1   
   129  127  130 1   
   130  127  134 1   
   131  128  129 2   
   132  128  140 1   
   133  130  131 1   
   134  130  132 1   
   135  130  135 1   
   136  131  137 1   
   137  131  138 1   
   138  131  139 1   
   139  132  136 1   
   140  140  141 1   
   141  140  149 1   
   142  141  142 1   
   143  141  144 1   
   144  141  150 1   
   145  142  143 2   
   146  142  162 1   
   147  144  145 1   
   148  144  151 1   
   149  144  152 1   
   150  145  146 1   
   151  145  153 1   
   152  145  154 1   
   153  146  147 1   
   154  146  155 1   
   155  146  156 1   
   156  147  148 1   
   157  147  157 1   
   158  147  158 1   
   159  148  159 1   
   160  148  160 1   
   161  148  161 1   
   162  162  163 1   
   163  162  171 1   
   164  163  164 1   
   165  163  166 1   
   166  163  172 1   
   167  164  165 2   
   168  164  177 1   
   169  166  167 1   
   170  166  173 1   
   171  166  174 1   
   172  167  168 1   
   173  167  175 1   
   174  167  176 1   
   175  168  169 1   
   176  168  170 1   
   177  177  178 1   
   178  177  182 1   
   179  178  179 1   
   180  178  180 1   
   181  178  181 1   
   182  184  185 1   
   183  184  186 1   
   184  187  188 1   
   185  187  189 1   
@<TRIPOS>SUBSTRUCTURE
     1 MOL         1 TEMP              0 ****  ****    0 ROOT
