@<TRIPOS>MOLECULE
MOL
  189   185     1     0     0
SMALL
resp


@<TRIPOS>ATOM
      1 C1         -0.6900    2.9200    5.2390 c3        1 MOL     -0.351554
      2 C2         -0.8770    2.1940    3.9490 c         1 MOL      0.631267
      3 O1         -0.0240    2.2660    3.0660 o         1 MOL     -0.575448
      4 H1         -0.0460    3.7850    5.0790 hc        1 MOL      0.098041
      5 H2         -1.6580    3.2530    5.6130 hc        1 MOL      0.098041
      6 H3         -0.2280    2.2540    5.9670 hc        1 MOL      0.098041
      7 N1         -1.9660    1.4450    3.7160 n         1 MOL     -0.571721
      8 C3         -2.5420    1.0840    2.3750 c3        1 MOL      0.106340
      9 C4         -3.2780    2.2820    1.8000 c         1 MOL      0.376035
     10 O2         -4.4720    2.2970    1.6050 o         1 MOL     -0.386238
     11 C5         -3.4400   -0.1400    2.7640 c3        1 MOL     -0.134941
     12 C6         -4.2110   -0.6340    1.5460 c         1 MOL      0.550498
     13 O3         -3.7450   -0.4480    0.3830 o         1 MOL     -0.574424
     14 O4         -5.2970   -1.1600    1.7320 o         1 MOL     -0.574424
     15 H4         -2.5180    1.2770    4.5440 hn        1 MOL      0.316587
     16 H5         -1.7160    0.7450    1.7440 h1        1 MOL     -0.016957
     17 H6         -4.1830    0.1510    3.4960 hc        1 MOL      0.040898
     18 H7         -2.7960   -0.9070    3.1870 hc        1 MOL      0.040898
     19 N2         -2.4130    3.2380    1.4960 n         1 MOL     -0.133494
     20 C7         -2.7880    4.6230    1.1800 c3        1 MOL     -0.143656
     21 C8         -3.8690    4.6840    0.0560 c         1 MOL      0.459773
     22 O5         -4.9110    5.3090    0.1320 o         1 MOL     -0.546613
     23 C9         -1.6210    5.5870    0.9970 c3        1 MOL     -0.086752
     24 C10        -1.9010    7.0370    1.0390 c3        1 MOL     -0.167519
     25 C11        -0.7220    8.0300    0.9950 c3        1 MOL      0.151349
     26 C12        -1.1530    9.4400    0.9360 c3        1 MOL     -0.011568
     27 N3         -0.1110   10.2220    0.2770 n4        1 MOL     -0.383786
     28 H8         -1.4730    2.9490    1.7160 hn        1 MOL      0.230867
     29 H9         -3.3470    4.8550    2.0900 h1        1 MOL      0.082177
     30 H10        -1.1740    5.4060    0.0280 hc        1 MOL      0.069955
     31 H11        -0.7740    5.3640    1.6510 hc        1 MOL      0.069955
     32 H12        -2.4410    7.3330    1.9480 hc        1 MOL      0.065076
     33 H13        -2.5820    7.3660    0.2510 hc        1 MOL      0.065076
     34 H14        -0.1310    7.7480    0.1230 hc        1 MOL     -0.004713
     35 H15         0.0350    7.8880    1.7690 hc        1 MOL     -0.004713
     36 H16        -1.4410    9.7170    1.9540 hx        1 MOL      0.096771
     37 H17        -2.0450    9.4700    0.3080 hx        1 MOL      0.096771
     38 H18         0.6770   10.3830    0.8810 hn        1 MOL      0.335807
     39 H19         0.2630    9.8170   -0.5690 hn        1 MOL      0.335807
     40 H20        -0.5330   11.1140    0.0730 hn        1 MOL      0.335807
     41 N4         -3.5710    3.9160   -0.9700 n         1 MOL     -0.202791
     42 C13        -4.3280    3.6950   -2.1990 c3        1 MOL     -0.051645
     43 C14        -5.4140    2.5980   -2.1290 c         1 MOL      0.386005
     44 O6         -6.1470    2.4330   -3.0500 o         1 MOL     -0.488858
     45 C15        -3.4700    3.6910   -3.4790 c3        1 MOL     -0.163124
     46 C16        -2.3550    2.5680   -3.4120 c         1 MOL      0.816904
     47 O7         -1.4810    2.6090   -4.2950 o         1 MOL     -0.738648
     48 O8         -2.4110    1.7610   -2.4480 o         1 MOL     -0.738648
     49 H21        -2.7190    3.3780   -0.9370 hn        1 MOL      0.164899
     50 H22        -4.9470    4.5970   -2.1830 h1        1 MOL      0.081123
     51 H23        -2.9610    4.6530   -3.5280 hc        1 MOL      0.033794
     52 H24        -4.1820    3.5350   -4.2870 hc        1 MOL      0.033794
     53 N5         -5.6520    2.0630   -0.9520 n         1 MOL      0.109958
     54 C17        -6.9560    1.5870   -0.5470 c3        1 MOL     -0.057204
     55 C18        -7.3240    0.3560   -1.3600 c         1 MOL      0.400905
     56 O9         -8.3980    0.4330   -1.9920 o         1 MOL     -0.562839
     57 H25        -5.0450    2.3550   -0.2020 hn        1 MOL     -0.006823
     58 H26        -7.6530    2.4230   -0.5280 h1        1 MOL      0.059650
     59 H27        -6.9300    1.2060    0.4780 h1        1 MOL      0.059650
     60 N6         -6.5510   -0.6930   -1.3260 n         1 MOL     -0.004752
     61 C19        -6.8490   -1.9530   -2.1080 c3        1 MOL     -0.016658
     62 C20        -6.9060   -3.2170   -1.2050 c         1 MOL      0.398579
     63 O10        -7.1190   -4.3760   -1.5890 o         1 MOL     -0.530557
     64 C21        -5.8370   -2.0150   -3.2630 c3        1 MOL      0.115212
     65 C22        -4.4020   -1.8780   -2.8070 c         1 MOL      0.578438
     66 O11        -3.8650   -0.7630   -2.8140 o         1 MOL     -0.651072
     67 O12        -3.8900   -2.7920   -2.1280 o         1 MOL     -0.651072
     68 H28        -5.6710   -0.7380   -0.8310 hn        1 MOL     -0.180125
     69 H29        -7.8380   -1.8840   -2.5580 h1        1 MOL      0.089234
     70 H30        -6.0660   -1.3190   -4.0690 hc        1 MOL     -0.020186
     71 H31        -5.9650   -2.9970   -3.7210 hc        1 MOL     -0.020186
     72 N7         -6.6480   -2.9930    0.0710 n         1 MOL     -0.236125
     73 C23        -6.6500   -3.9140    1.1280 c3        1 MOL     -0.182515
     74 C24        -5.1740   -4.3890    1.4400 c         1 MOL      0.445048
     75 O13        -5.0410   -5.2920    2.2670 o         1 MOL     -0.575199
     76 H32        -6.4620   -2.0560    0.3950 hn        1 MOL      0.243869
     77 H33        -7.2570   -4.7720    0.8750 h1        1 MOL      0.123244
     78 H34        -7.0650   -3.4320    2.0120 h1        1 MOL      0.123244
     79 N8         -4.1050   -3.9610    0.7370 n         1 MOL     -0.026578
     80 C25        -2.8090   -4.5330    0.9680 c3        1 MOL     -0.048295
     81 C26        -1.6860   -3.5510    1.1400 c         1 MOL      0.450419
     82 O14        -1.6800   -2.4800    0.5070 o         1 MOL     -0.379368
     83 C27        -2.5240   -5.6060   -0.0770 c3        1 MOL      0.474393
     84 C28        -3.5250   -6.7350   -0.2830 c3        1 MOL     -0.247557
     85 O15        -2.3410   -4.9090   -1.3330 oh        1 MOL     -0.673132
     86 H35        -4.2230   -3.1580    0.1360 hn        1 MOL      0.072204
     87 H36        -2.8010   -5.0320    1.9290 h1        1 MOL      0.027973
     88 H37        -1.6180   -6.0920    0.2770 h1        1 MOL     -0.020213
     89 H38        -3.0360   -4.2540   -1.3770 ho        1 MOL      0.359904
     90 H39        -3.4060   -7.4070    0.5680 hc        1 MOL      0.055437
     91 H40        -4.5540   -6.3950   -0.3820 hc        1 MOL      0.055437
     92 H41        -3.2370   -7.3320   -1.1570 hc        1 MOL      0.055437
     93 N9         -0.5480   -3.8990    1.7500 n         1 MOL     -0.525660
     94 C29         0.7260   -3.0420    1.7950 c3        1 MOL      0.064564
     95 C30         1.8690   -3.4540    0.9000 c         1 MOL      0.549759
     96 O16         2.2460   -4.6400    0.9970 o         1 MOL     -0.567573
     97 C31         1.1770   -2.8290    3.2640 c3        1 MOL      0.091286
     98 C32         0.3190   -1.8250    4.0100 c3        1 MOL     -0.141878
     99 C33         2.5890   -2.3490    3.3450 c3        1 MOL     -0.147261
    100 C34         0.5410   -1.6100    5.5340 c3        1 MOL     -0.160515
    101 H42        -0.5620   -4.8780    2.0110 hn        1 MOL      0.293348
    102 H43         0.4190   -2.0610    1.4410 h1        1 MOL      0.025384
    103 H44         1.0470   -3.7230    3.8670 hc        1 MOL      0.025665
    104 H45        -0.7400   -2.0310    3.8390 hc        1 MOL      0.081490
    105 H46         0.5710   -0.8730    3.5330 hc        1 MOL      0.081490
    106 H47         3.2660   -3.1960    3.2660 hc        1 MOL      0.012320
    107 H48         2.8200   -1.5690    2.6210 hc        1 MOL      0.012320
    108 H49         2.7440   -1.7940    4.2720 hc        1 MOL      0.012320
    109 H50        -0.1830   -0.9900    6.0540 hc        1 MOL      0.046661
    110 H51         0.4500   -2.5650    6.0520 hc        1 MOL      0.046661
    111 H52         1.4970   -1.1550    5.7870 hc        1 MOL      0.046661
    112 N10         2.3650   -2.5730    0.0220 n         1 MOL     -0.105816
    113 C35         3.4920   -2.7750   -0.9680 c3        1 MOL     -0.288506
    114 C36         4.8530   -2.6130   -0.2230 c         1 MOL      0.446389
    115 O17         4.9290   -2.3810    0.9670 o         1 MOL     -0.353008
    116 C37         3.4200   -1.7470   -2.1370 c3        1 MOL      0.267003
    117 C38         2.3020   -2.1410   -3.0470 c3        1 MOL     -0.364392
    118 O18         3.0810   -0.3940   -1.6150 oh        1 MOL     -0.553146
    119 H53         1.7760   -1.7690   -0.1190 hn        1 MOL      0.041251
    120 H54         3.4770   -3.7910   -1.3520 h1        1 MOL      0.144540
    121 H55         4.3490   -1.6770   -2.7020 h1        1 MOL      0.036591
    122 H56         2.1670   -0.4600   -1.3380 ho        1 MOL      0.304244
    123 H57         2.3730   -1.4010   -3.8400 hc        1 MOL      0.122864
    124 H58         2.4070   -3.1580   -3.4420 hc        1 MOL      0.122864
    125 H59         1.3390   -2.0830   -2.5380 hc        1 MOL      0.122864
    126 N11         5.9510   -2.6590   -0.9500 n         1 MOL     -0.376614
    127 C39         7.2960   -2.3220   -0.3080 c3        1 MOL     -0.097711
    128 C40         7.3840   -0.8140    0.2290 c         1 MOL      0.290043
    129 O19         7.7090   -0.5430    1.3930 o         1 MOL     -0.446045
    130 C41         8.5200   -2.7410   -1.1700 c3        1 MOL      0.205405
    131 C42         8.6840   -4.1610   -1.5080 c3        1 MOL     -0.174709
    132 O20         8.5920   -1.9380   -2.3870 oh        1 MOL     -0.675071
    133 H60         5.9980   -2.8400   -1.9470 hn        1 MOL      0.307488
    134 H61         7.3450   -2.9920    0.5540 h1        1 MOL      0.141239
    135 H62         9.4400   -2.3500   -0.7340 h1        1 MOL      0.054655
    136 H63         9.4880   -2.0100   -2.7210 ho        1 MOL      0.410621
    137 H64         9.0220   -4.7520   -0.6550 hc        1 MOL      0.063766
    138 H65         7.7540   -4.5320   -1.9180 hc        1 MOL      0.063766
    139 H66         9.4760   -4.3530   -2.2330 hc        1 MOL      0.063766
    140 N12         7.0490    0.1220   -0.6390 n         1 MOL     -0.034516
    141 C43         7.2140    1.5100   -0.3570 c3        1 MOL      0.007776
    142 C44         6.2270    1.8730    0.8080 c         1 MOL      0.382812
    143 O21         6.7490    2.5360    1.7140 o         1 MOL     -0.508780
    144 C45         6.9640    2.3620   -1.6200 c3        1 MOL     -0.089660
    145 C46         7.6850    1.7320   -2.8900 c3        1 MOL     -0.050641
    146 C47         9.2020    1.9520   -2.8350 c3        1 MOL     -0.126765
    147 C48         9.9720    1.4210   -4.0660 c3        1 MOL      0.048373
    148 N13         9.3600    1.9410   -5.2820 n4        1 MOL     -0.260829
    149 H67         6.9160   -0.0880   -1.6130 hn        1 MOL      0.195425
    150 H68         8.2260    1.7330   -0.0430 h1        1 MOL      0.068075
    151 H69         7.1230    3.4390   -1.5250 hc        1 MOL      0.057728
    152 H70         5.9040    2.2000   -1.7860 hc        1 MOL      0.057728
    153 H71         7.3390    2.2560   -3.7820 hc        1 MOL      0.025156
    154 H72         7.3250    0.7130   -3.0140 hc        1 MOL      0.025156
    155 H73         9.5490    1.4400   -1.9360 hc        1 MOL      0.079617
    156 H74         9.5430    2.9800   -2.7130 hc        1 MOL      0.079617
    157 H75         9.9060    0.3360   -3.9790 hx        1 MOL      0.070300
    158 H76        11.0480    1.5860   -4.1030 hx        1 MOL      0.070300
    159 H77         8.3500    1.9000   -5.2890 hn        1 MOL      0.279570
    160 H78         9.7270    2.8660   -5.4540 hn        1 MOL      0.279570
    161 H79         9.6650    1.4610   -6.1230 hn        1 MOL      0.279570
    162 N14         4.9990    1.3360    0.8840 n         1 MOL     -0.175095
    163 C49         3.9760    1.4370    1.9720 c3        1 MOL     -0.145107
    164 C50         4.5330    0.7470    3.2490 c         1 MOL      0.464541
    165 O22         4.4300    1.3080    4.3350 o         1 MOL     -0.565119
    166 C51         2.6910    0.7820    1.5370 c3        1 MOL     -0.014412
    167 C52         1.8360    1.6300    0.5780 c3        1 MOL      0.019324
    168 C53         0.6140    0.7970    0.0580 c         1 MOL      0.770674
    169 O23         0.6650   -0.4540   -0.2750 o         1 MOL     -0.698758
    170 O24        -0.3630    1.4370   -0.1580 o         1 MOL     -0.698758
    171 H80         4.7800    0.6730    0.1650 hn        1 MOL      0.074959
    172 H81         3.8110    2.4490    2.3260 h1        1 MOL      0.111351
    173 H82         2.0720    0.4800    2.3820 hc        1 MOL      0.107185
    174 H83         3.0240   -0.1610    1.0930 hc        1 MOL      0.107185
    175 H84         2.4050    1.9270   -0.3070 hc        1 MOL     -0.018695
    176 H85         1.5260    2.5430    1.0860 hc        1 MOL     -0.018695
    177 N15         5.2770   -0.3920    3.2410 n         1 MOL      0.124785
    178 C54         5.9880   -0.9430    4.3300 c3        1 MOL     -0.323332
    179 H86         6.8970   -0.3650    4.4990 h1        1 MOL      0.098821
    180 H87         5.3660   -0.9100    5.2240 h1        1 MOL      0.098821
    181 H88         6.2510   -1.9760    4.1070 h1        1 MOL      0.098821
    182 H89         5.5010   -0.8360    2.3560 hn        1 MOL      0.045407
    183 Ca1        -1.8140   -0.5170   -1.3430 Ca        1 MOL      1.674361
    184 O25        -0.3230    0.2140   -3.3240 oh        1 MOL     -0.939711
    185 H90        -0.6590    1.1020   -3.1570 ho        1 MOL      0.440074
    186 H91         0.0500    0.2640   -4.2050 ho        1 MOL      0.440074
    187 O26        -1.0590   -2.7310   -2.6260 oh        1 MOL     -0.939711
    188 H92        -1.7620   -3.3080   -2.3410 ho        1 MOL      0.440074
    189 H93        -0.9310   -2.9380   -3.5520 ho        1 MOL      0.440074
@<TRIPOS>BOND
     1    1    2 1   
     2    1    4 1   
     3    1    5 1   
     4    1    6 1   
     5    2    3 2   
     6    2    7 1   
     7    7    8 1   
     8    7   15 1   
     9    8    9 1   
    10    8   11 1   
    11    8   16 1   
    12    9   10 2   
    13    9   19 1   
    14   11   12 1   
    15   11   17 1   
    16   11   18 1   
    17   12   13 1   
    18   12   14 1   
    19   19   20 1   
    20   19   28 1   
    21   20   21 1   
    22   20   23 1   
    23   20   29 1   
    24   21   22 2   
    25   21   41 1   
    26   23   24 1   
    27   23   30 1   
    28   23   31 1   
    29   24   25 1   
    30   24   32 1   
    31   24   33 1   
    32   25   26 1   
    33   25   34 1   
    34   25   35 1   
    35   26   27 1   
    36   26   36 1   
    37   26   37 1   
    38   27   38 1   
    39   27   39 1   
    40   27   40 1   
    41   41   42 1   
    42   41   49 1   
    43   42   43 1   
    44   42   45 1   
    45   42   50 1   
    46   43   44 2   
    47   43   53 1   
    48   45   46 1   
    49   45   51 1   
    50   45   52 1   
    51   46   47 1   
    52   46   48 1   
    53   53   54 1   
    54   53   57 1   
    55   54   55 1   
    56   54   58 1   
    57   54   59 1   
    58   55   56 2   
    59   55   60 1   
    60   60   61 1   
    61   60   68 1   
    62   61   62 1   
    63   61   64 1   
    64   61   69 1   
    65   62   63 2   
    66   62   72 1   
    67   64   65 1   
    68   64   70 1   
    69   64   71 1   
    70   65   66 1   
    71   65   67 1   
    72   72   73 1   
    73   72   76 1   
    74   73   74 1   
    75   73   77 1   
    76   73   78 1   
    77   74   75 2   
    78   74   79 1   
    79   79   80 1   
    80   79   86 1   
    81   80   81 1   
    82   80   83 1   
    83   80   87 1   
    84   81   82 2   
    85   81   93 1   
    86   83   84 1   
    87   83   85 1   
    88   83   88 1   
    89   84   90 1   
    90   84   91 1   
    91   84   92 1   
    92   85   89 1   
    93   93   94 1   
    94   93  101 1   
    95   94   95 1   
    96   94   97 1   
    97   94  102 1   
    98   95   96 2   
    99   95  112 1   
   100   97   98 1   
   101   97   99 1   
   102   97  103 1   
   103   98  100 1   
   104   98  104 1   
   105   98  105 1   
   106   99  106 1   
   107   99  107 1   
   108   99  108 1   
   109  100  109 1   
   110  100  110 1   
   111  100  111 1   
   112  112  113 1   
   113  112  119 1   
   114  113  114 1   
   115  113  116 1   
   116  113  120 1   
   117  114  115 2   
   118  114  126 1   
   119  116  117 1   
   120  116  118 1   
   121  116  121 1   
   122  117  123 1   
   123  117  124 1   
   124  117  125 1   
   125  118  122 1   
   126  126  127 1   
   127  126  133 1   
   128  127  128 1   
   129  127  130 1   
   130  127  134 1   
   131  128  129 2   
   132  128  140 1   
   133  130  131 1   
   134  130  132 1   
   135  130  135 1   
   136  131  137 1   
   137  131  138 1   
   138  131  139 1   
   139  132  136 1   
   140  140  141 1   
   141  140  149 1   
   142  141  142 1   
   143  141  144 1   
   144  141  150 1   
   145  142  143 2   
   146  142  162 1   
   147  144  145 1   
   148  144  151 1   
   149  144  152 1   
   150  145  146 1   
   151  145  153 1   
   152  145  154 1   
   153  146  147 1   
   154  146  155 1   
   155  146  156 1   
   156  147  148 1   
   157  147  157 1   
   158  147  158 1   
   159  148  159 1   
   160  148  160 1   
   161  148  161 1   
   162  162  163 1   
   163  162  171 1   
   164  163  164 1   
   165  163  166 1   
   166  163  172 1   
   167  164  165 2   
   168  164  177 1   
   169  166  167 1   
   170  166  173 1   
   171  166  174 1   
   172  167  168 1   
   173  167  175 1   
   174  167  176 1   
   175  168  169 1   
   176  168  170 1   
   177  177  178 1   
   178  177  182 1   
   179  178  179 1   
   180  178  180 1   
   181  178  181 1   
   182  184  185 1   
   183  184  186 1   
   184  187  188 1   
   185  187  189 1   
@<TRIPOS>SUBSTRUCTURE
     1 MOL         1 TEMP              0 ****  ****    0 ROOT
