@<TRIPOS>MOLECULE
MOL
  189   185     1     0     0
SMALL
resp


@<TRIPOS>ATOM
      1 C1          0.6460    2.4630    5.4790 c3        1 MOL     -0.242999
      2 C2          0.1100    2.3430    4.0450 c         1 MOL      0.558909
      3 O1          0.8710    2.6700    3.1420 o         1 MOL     -0.579649
      4 H1          1.4130    1.7070    5.6440 hc        1 MOL      0.068980
      5 H2          1.0750    3.4540    5.6240 hc        1 MOL      0.068980
      6 H3         -0.1700    2.3120    6.1860 hc        1 MOL      0.068980
      7 N1         -1.1110    1.7980    3.7880 n         1 MOL     -0.341370
      8 C3         -1.6500    1.5550    2.4920 c3        1 MOL     -0.036975
      9 C4         -2.1820    2.8210    1.8760 c         1 MOL      0.216249
     10 O2         -3.2310    3.2870    2.2720 o         1 MOL     -0.487552
     11 C5         -2.8440    0.5170    2.5780 c3        1 MOL     -0.334294
     12 C6         -3.5870    0.2670    1.2570 c         1 MOL      0.988451
     13 O3         -4.7480   -0.0890    1.3500 o         1 MOL     -0.819951
     14 O4         -3.1350    0.6200    0.1340 o         1 MOL     -0.819951
     15 H4         -1.6850    1.7020    4.6180 hn        1 MOL      0.273711
     16 H5         -0.8680    1.1150    1.8730 h1        1 MOL      0.063509
     17 H6         -3.5660    0.7840    3.3490 hc        1 MOL      0.095860
     18 H7         -2.4580   -0.4790    2.8050 hc        1 MOL      0.095860
     19 N2         -1.4490    3.3260    0.8950 n         1 MOL      0.054879
     20 C7         -1.8350    4.6610    0.3940 c3        1 MOL      0.060533
     21 C8         -3.0890    4.6520   -0.4880 c         1 MOL      0.143341
     22 O5         -3.9050    5.5760   -0.5500 o         1 MOL     -0.552352
     23 C9         -0.7030    5.4370   -0.2620 c3        1 MOL      0.068002
     24 C10         0.5950    5.6640    0.6380 c3        1 MOL     -0.117847
     25 C11         0.3310    6.1280    2.0900 c3        1 MOL     -0.054737
     26 C12        -0.6930    7.2250    2.4160 c3        1 MOL     -0.030037
     27 N3         -0.6480    7.4650    3.9170 n4        1 MOL     -0.318616
     28 H8         -0.6120    2.9020    0.5340 hn        1 MOL      0.264991
     29 H9         -2.2380    5.2300    1.2350 h1        1 MOL      0.031642
     30 H10        -0.9390    6.4620   -0.5390 hc        1 MOL      0.009362
     31 H11        -0.5310    4.9110   -1.1980 hc        1 MOL      0.009362
     32 H12         1.2570    6.3370    0.0930 hc        1 MOL      0.052848
     33 H13         1.0180    4.6740    0.7790 hc        1 MOL      0.052848
     34 H14         1.3070    6.3200    2.5240 hc        1 MOL      0.038659
     35 H15         0.0650    5.2130    2.6290 hc        1 MOL      0.038659
     36 H16        -1.6290    6.7710    2.0790 hx        1 MOL      0.099779
     37 H17        -0.4940    8.1050    1.8010 hx        1 MOL      0.099779
     38 H18        -0.8790    6.6610    4.4770 hn        1 MOL      0.316880
     39 H19         0.2080    7.8830    4.2780 hn        1 MOL      0.316880
     40 H20        -1.3510    8.1370    4.1610 hn        1 MOL      0.316880
     41 N4         -3.2440    3.6470   -1.2530 n         1 MOL      0.212882
     42 C13        -4.4040    3.5110   -2.2130 c3        1 MOL     -0.322666
     43 C14        -5.7730    3.0860   -1.6290 c         1 MOL      0.624159
     44 O6         -6.7160    3.1290   -2.4110 o         1 MOL     -0.558020
     45 C15        -4.0060    2.5790   -3.4100 c3        1 MOL     -0.186374
     46 C16        -2.4970    2.4610   -3.6220 c         1 MOL      0.679352
     47 O7         -1.8510    3.3100   -4.2810 o         1 MOL     -0.699464
     48 O8         -1.9460    1.4730   -3.0040 o         1 MOL     -0.699464
     49 H21        -2.5530    2.9010   -1.1920 hn        1 MOL      0.060377
     50 H22        -4.6240    4.5100   -2.6050 h1        1 MOL      0.163607
     51 H23        -4.5100    2.7700   -4.3530 hc        1 MOL      0.073170
     52 H24        -4.4990    1.6320   -3.1670 hc        1 MOL      0.073170
     53 N5         -5.8170    2.6480   -0.3820 n         1 MOL     -0.382671
     54 C17        -7.0320    2.1350    0.2140 c3        1 MOL     -0.281794
     55 C18        -7.4200    0.7150   -0.2580 c         1 MOL      0.523770
     56 O9         -8.3770    0.1710    0.2550 o         1 MOL     -0.578733
     57 H25        -4.9300    2.3180   -0.0360 hn        1 MOL      0.342624
     58 H26        -7.8610    2.7950   -0.0210 h1        1 MOL      0.162000
     59 H27        -6.9780    2.0900    1.3090 h1        1 MOL      0.162000
     60 N6         -6.7060   -0.0000   -1.1700 n         1 MOL     -0.219665
     61 C19        -7.0250   -1.3460   -1.6590 c3        1 MOL     -0.037737
     62 C20        -7.1440   -2.5200   -0.6760 c         1 MOL      0.527522
     63 O10        -7.6820   -3.5910   -0.8780 o         1 MOL     -0.545550
     64 C21        -6.1590   -1.7920   -2.8190 c3        1 MOL     -0.325835
     65 C22        -4.6840   -1.6950   -2.4640 c         1 MOL      0.789131
     66 O11        -3.8200   -0.9980   -3.0770 o         1 MOL     -0.806433
     67 O12        -4.2210   -2.3260   -1.4800 o         1 MOL     -0.806433
     68 H28        -5.8490    0.4620   -1.4540 hn        1 MOL      0.192523
     69 H29        -7.9980   -1.3190   -2.1350 h1        1 MOL      0.089673
     70 H30        -6.3450   -1.1450   -3.6760 hc        1 MOL      0.114338
     71 H31        -6.3210   -2.8600   -2.9080 hc        1 MOL      0.114338
     72 N7         -6.6670   -2.2440    0.5270 n         1 MOL     -0.315595
     73 C23        -6.5430   -3.2890    1.6090 c3        1 MOL     -0.030197
     74 C24        -5.2180   -4.1500    1.7130 c         1 MOL      0.594396
     75 O13        -5.2080   -5.2000    2.3970 o         1 MOL     -0.602365
     76 H32        -6.2030   -1.3700    0.7770 hn        1 MOL      0.376412
     77 H33        -7.3910   -3.9640    1.4940 h1        1 MOL      0.052083
     78 H34        -6.6430   -2.8830    2.6140 h1        1 MOL      0.052083
     79 N8         -4.1540   -3.7510    1.0090 n         1 MOL     -0.356026
     80 C25        -2.9100   -4.5550    0.8810 c3        1 MOL     -0.143084
     81 C26        -1.6540   -3.5800    0.9270 c         1 MOL      0.800229
     82 O14        -1.6560   -2.5010    0.2640 o         1 MOL     -0.731881
     83 C27        -2.8490   -5.3740   -0.4310 c3        1 MOL      0.462257
     84 C28        -3.3100   -6.7630    0.0100 c3        1 MOL     -0.401948
     85 O15        -3.8820   -5.0210   -1.3520 oh        1 MOL     -0.670939
     86 H35        -4.2760   -2.8930    0.5040 hn        1 MOL      0.222203
     87 H36        -2.7700   -5.2610    1.7050 h1        1 MOL      0.088330
     88 H37        -1.8640   -5.4110   -0.8980 h1        1 MOL     -0.043635
     89 H38        -3.9470   -4.0630   -1.3330 ho        1 MOL      0.504282
     90 H39        -3.3640   -7.5410   -0.7560 hc        1 MOL      0.102658
     91 H40        -2.5680   -7.1570    0.6980 hc        1 MOL      0.102658
     92 H41        -4.3250   -6.6530    0.3890 hc        1 MOL      0.102658
     93 N9         -0.6090   -3.9140    1.6640 n         1 MOL     -0.748145
     94 C29         0.5870   -3.0240    1.8500 c3        1 MOL     -0.075042
     95 C30         1.7970   -3.5680    1.0480 c         1 MOL      0.717043
     96 O16         2.2330   -4.6900    1.2340 o         1 MOL     -0.601337
     97 C31         1.0090   -2.7560    3.2860 c3        1 MOL      0.216366
     98 C32        -0.1720   -2.1750    4.1450 c3        1 MOL      0.298297
     99 C33         2.0970   -1.6770    3.3270 c3        1 MOL     -0.687034
    100 C34        -0.0740   -2.5670    5.6140 c3        1 MOL     -0.250608
    101 H42        -0.4820   -4.8320    2.0550 hn        1 MOL      0.368349
    102 H43         0.3710   -2.0260    1.4670 h1        1 MOL      0.182110
    103 H44         1.4720   -3.6590    3.6770 hc        1 MOL     -0.007174
    104 H45        -1.1640   -2.4630    3.8020 hc        1 MOL     -0.060224
    105 H46        -0.1760   -1.0850    4.1130 hc        1 MOL     -0.060224
    106 H47         1.8920   -0.6640    2.9950 hc        1 MOL      0.145045
    107 H48         2.4930   -1.6370    4.3420 hc        1 MOL      0.145045
    108 H49         2.9660   -1.9970    2.7540 hc        1 MOL      0.145045
    109 H50        -0.8800   -2.0130    6.1040 hc        1 MOL      0.045249
    110 H51        -0.1980   -3.6550    5.6270 hc        1 MOL      0.045249
    111 H52         0.9150   -2.2830    5.9780 hc        1 MOL      0.045249
    112 N10         2.3170   -2.8030    0.1160 n         1 MOL     -0.384944
    113 C35         3.5120   -3.1530   -0.6710 c3        1 MOL     -0.003547
    114 C36         4.8180   -2.6090   -0.0810 c         1 MOL      0.329415
    115 O17         4.8920   -1.7010    0.7460 o         1 MOL     -0.331833
    116 C37         3.4050   -2.7550   -2.1250 c3        1 MOL      0.424945
    117 C38         2.5280   -3.6060   -2.9300 c3        1 MOL     -0.550982
    118 O18         2.9730   -1.4330   -2.1950 oh        1 MOL     -0.632065
    119 H53         2.0280   -1.8390    0.1280 hn        1 MOL      0.238098
    120 H54         3.6080   -4.2270   -0.5410 h1        1 MOL      0.072239
    121 H55         4.4320   -2.7490   -2.4850 h1        1 MOL     -0.022224
    122 H56         2.3870   -1.2950   -1.4420 ho        1 MOL      0.471761
    123 H57         2.6610   -3.3510   -3.9820 hc        1 MOL      0.139913
    124 H58         2.8980   -4.6260   -2.8160 hc        1 MOL      0.139913
    125 H59         1.4910   -3.4810   -2.6060 hc        1 MOL      0.139913
    126 N11         5.9940   -3.1840   -0.3950 n         1 MOL     -0.261026
    127 C39         7.3680   -2.7730   -0.0030 c3        1 MOL     -0.231663
    128 C40         7.6660   -1.2950   -0.2060 c         1 MOL      0.501138
    129 O19         8.2720   -0.8010    0.7620 o         1 MOL     -0.499210
    130 C41         8.4040   -3.5560   -0.8330 c3        1 MOL      0.246692
    131 C42         8.3380   -5.0390   -0.5620 c3        1 MOL     -0.371098
    132 O20         8.0910   -3.3990   -2.2510 oh        1 MOL     -0.652528
    133 H60         5.8370   -3.8870   -1.0960 hn        1 MOL      0.211935
    134 H61         7.4220   -3.0220    1.0590 h1        1 MOL      0.189865
    135 H62         9.4290   -3.2400   -0.6370 h1        1 MOL      0.086474
    136 H63         8.5370   -4.1340   -2.6770 ho        1 MOL      0.430002
    137 H64         7.5080   -5.6540   -0.9010 hc        1 MOL      0.108598
    138 H65         9.1250   -5.4190   -1.2090 hc        1 MOL      0.108598
    139 H66         8.5950   -5.2610    0.4740 hc        1 MOL      0.108598
    140 N12         7.1260   -0.5530   -1.2160 n         1 MOL     -0.298851
    141 C43         7.2800    0.8920   -1.1810 c3        1 MOL     -0.066693
    142 C44         6.3150    1.6390   -0.2310 c         1 MOL      0.318019
    143 O21         6.7340    2.6520    0.3690 o         1 MOL     -0.510102
    144 C45         7.0020    1.5780   -2.5660 c3        1 MOL     -0.043466
    145 C46         7.2140    3.0480   -2.6340 c3        1 MOL     -0.222030
    146 C47         6.7700    3.6410   -3.9810 c3        1 MOL     -0.044020
    147 C48         5.2550    3.6990   -3.9540 c3        1 MOL      0.154482
    148 N13         4.7170    4.2280   -5.2110 n4        1 MOL     -0.589806
    149 H67         6.8540   -1.0370   -2.0560 hn        1 MOL      0.265698
    150 H68         8.2930    1.1280   -0.8620 h1        1 MOL      0.133711
    151 H69         5.9990    1.2380   -2.8250 hc        1 MOL      0.041845
    152 H70         7.6820    1.1680   -3.3060 hc        1 MOL      0.041845
    153 H71         8.2870    3.2290   -2.7030 hc        1 MOL      0.113462
    154 H72         6.7610    3.7460   -1.9220 hc        1 MOL      0.113462
    155 H73         7.1730    3.0350   -4.7930 hc        1 MOL      0.043993
    156 H74         7.1520    4.6610   -4.0490 hc        1 MOL      0.043993
    157 H75         4.8420    4.2420   -3.1020 hx        1 MOL      0.078204
    158 H76         4.9700    2.6470   -3.8590 hx        1 MOL      0.078204
    159 H77         4.9810    3.6650   -6.0020 hn        1 MOL      0.384709
    160 H78         3.7140    4.1560   -5.2280 hn        1 MOL      0.384709
    161 H79         4.8400    5.2180   -5.3620 hn        1 MOL      0.384709
    162 N14         5.1790    1.1010    0.0680 n         1 MOL      0.000532
    163 C49         4.3770    1.6110    1.1500 c3        1 MOL     -0.351717
    164 C50         5.0340    1.4350    2.4870 c         1 MOL      0.589956
    165 O22         4.9020    2.3170    3.3300 o         1 MOL     -0.551498
    166 C51         2.9770    0.9560    1.0500 c3        1 MOL     -0.030876
    167 C52         2.2250    1.3920   -0.1840 c3        1 MOL      0.007600
    168 C53         0.8780    0.6600   -0.4070 c         1 MOL      0.780915
    169 O23        -0.1320    1.3850   -0.6260 o         1 MOL     -0.818555
    170 O24         0.9460   -0.5780   -0.4980 o         1 MOL     -0.818555
    171 H80         4.9090    0.2310   -0.3660 hn        1 MOL      0.136861
    172 H81         4.2000    2.6820    1.0370 h1        1 MOL      0.150978
    173 H82         2.3240    1.3100    1.8490 hc        1 MOL      0.100917
    174 H83         3.0220   -0.1350    1.0350 hc        1 MOL      0.100917
    175 H84         2.7900    1.0720   -1.0560 hc        1 MOL     -0.067237
    176 H85         2.1230    2.4840   -0.2460 hc        1 MOL     -0.067237
    177 N15         5.7380    0.2840    2.6930 n         1 MOL     -0.172514
    178 C54         6.5190    0.0290    3.9580 c3        1 MOL     -0.480973
    179 H86         5.8280   -0.0860    4.7930 h1        1 MOL      0.167534
    180 H87         7.1060   -0.8830    3.8450 h1        1 MOL      0.167534
    181 H88         7.1850    0.8700    4.1510 h1        1 MOL      0.167534
    182 H89         5.8710   -0.3830    1.9370 hn        1 MOL      0.198174
    183 Ca1        -1.7470   -0.6230   -1.6240 Ca        1 MOL      1.811252
    184 O25        -1.1910   -3.3020   -2.6680 oh        1 MOL     -0.806609
    185 H90        -1.7710   -4.0490   -2.8090 ho        1 MOL      0.389626
    186 H91        -0.9760   -2.9880   -3.5410 ho        1 MOL      0.389626
    187 O26        -0.3850   -0.7130   -4.0790 oh        1 MOL     -0.806609
    188 H92        -0.8480   -0.0510   -4.5810 ho        1 MOL      0.389626
    189 H93         0.4700   -0.7820   -4.5040 ho        1 MOL      0.389626
@<TRIPOS>BOND
     1    1    2 1   
     2    1    4 1   
     3    1    5 1   
     4    1    6 1   
     5    2    3 2   
     6    2    7 1   
     7    7    8 1   
     8    7   15 1   
     9    8    9 1   
    10    8   11 1   
    11    8   16 1   
    12    9   10 2   
    13    9   19 1   
    14   11   12 1   
    15   11   17 1   
    16   11   18 1   
    17   12   13 1   
    18   12   14 1   
    19   19   20 1   
    20   19   28 1   
    21   20   21 1   
    22   20   23 1   
    23   20   29 1   
    24   21   22 2   
    25   21   41 1   
    26   23   24 1   
    27   23   30 1   
    28   23   31 1   
    29   24   25 1   
    30   24   32 1   
    31   24   33 1   
    32   25   26 1   
    33   25   34 1   
    34   25   35 1   
    35   26   27 1   
    36   26   36 1   
    37   26   37 1   
    38   27   38 1   
    39   27   39 1   
    40   27   40 1   
    41   41   42 1   
    42   41   49 1   
    43   42   43 1   
    44   42   45 1   
    45   42   50 1   
    46   43   44 2   
    47   43   53 1   
    48   45   46 1   
    49   45   51 1   
    50   45   52 1   
    51   46   47 1   
    52   46   48 1   
    53   53   54 1   
    54   53   57 1   
    55   54   55 1   
    56   54   58 1   
    57   54   59 1   
    58   55   56 2   
    59   55   60 1   
    60   60   61 1   
    61   60   68 1   
    62   61   62 1   
    63   61   64 1   
    64   61   69 1   
    65   62   63 2   
    66   62   72 1   
    67   64   65 1   
    68   64   70 1   
    69   64   71 1   
    70   65   66 1   
    71   65   67 1   
    72   72   73 1   
    73   72   76 1   
    74   73   74 1   
    75   73   77 1   
    76   73   78 1   
    77   74   75 2   
    78   74   79 1   
    79   79   80 1   
    80   79   86 1   
    81   80   81 1   
    82   80   83 1   
    83   80   87 1   
    84   81   82 2   
    85   81   93 1   
    86   83   84 1   
    87   83   85 1   
    88   83   88 1   
    89   84   90 1   
    90   84   91 1   
    91   84   92 1   
    92   85   89 1   
    93   93   94 1   
    94   93  101 1   
    95   94   95 1   
    96   94   97 1   
    97   94  102 1   
    98   95   96 2   
    99   95  112 1   
   100   97   98 1   
   101   97   99 1   
   102   97  103 1   
   103   98  100 1   
   104   98  104 1   
   105   98  105 1   
   106   99  106 1   
   107   99  107 1   
   108   99  108 1   
   109  100  109 1   
   110  100  110 1   
   111  100  111 1   
   112  112  113 1   
   113  112  119 1   
   114  113  114 1   
   115  113  116 1   
   116  113  120 1   
   117  114  115 2   
   118  114  126 1   
   119  116  117 1   
   120  116  118 1   
   121  116  121 1   
   122  117  123 1   
   123  117  124 1   
   124  117  125 1   
   125  118  122 1   
   126  126  127 1   
   127  126  133 1   
   128  127  128 1   
   129  127  130 1   
   130  127  134 1   
   131  128  129 2   
   132  128  140 1   
   133  130  131 1   
   134  130  132 1   
   135  130  135 1   
   136  131  137 1   
   137  131  138 1   
   138  131  139 1   
   139  132  136 1   
   140  140  141 1   
   141  140  149 1   
   142  141  142 1   
   143  141  144 1   
   144  141  150 1   
   145  142  143 2   
   146  142  162 1   
   147  144  145 1   
   148  144  151 1   
   149  144  152 1   
   150  145  146 1   
   151  145  153 1   
   152  145  154 1   
   153  146  147 1   
   154  146  155 1   
   155  146  156 1   
   156  147  148 1   
   157  147  157 1   
   158  147  158 1   
   159  148  159 1   
   160  148  160 1   
   161  148  161 1   
   162  162  163 1   
   163  162  171 1   
   164  163  164 1   
   165  163  166 1   
   166  163  172 1   
   167  164  165 2   
   168  164  177 1   
   169  166  167 1   
   170  166  173 1   
   171  166  174 1   
   172  167  168 1   
   173  167  175 1   
   174  167  176 1   
   175  168  169 1   
   176  168  170 1   
   177  177  178 1   
   178  177  182 1   
   179  178  179 1   
   180  178  180 1   
   181  178  181 1   
   182  184  185 1   
   183  184  186 1   
   184  187  188 1   
   185  187  189 1   
@<TRIPOS>SUBSTRUCTURE
     1 MOL         1 TEMP              0 ****  ****    0 ROOT
