@<TRIPOS>MOLECULE
MOL
  189   185     1     0     0
SMALL
resp


@<TRIPOS>ATOM
      1 C1          0.2230   -4.6040    5.6470 c3        1 MOL     -0.409178
      2 C2          0.8760   -3.9220    4.4440 c         1 MOL      0.755761
      3 O1          0.9010   -2.7050    4.4390 o         1 MOL     -0.596919
      4 H1          0.8650   -5.4110    5.9990 hc        1 MOL      0.104677
      5 H2          0.0830   -3.8770    6.4460 hc        1 MOL      0.104677
      6 H3         -0.7440   -5.0130    5.3530 hc        1 MOL      0.104677
      7 N1          1.2920   -4.7150    3.4200 n         1 MOL     -0.650506
      8 C3          1.9410   -4.1710    2.2080 c3        1 MOL      0.035136
      9 C4          1.8350   -5.1460    1.0850 c         1 MOL      0.551881
     10 O2          2.0500   -6.3220    1.2230 o         1 MOL     -0.596437
     11 C5          3.4370   -3.8680    2.5200 c3        1 MOL      0.016307
     12 C6          4.1230   -3.2540    1.3530 c         1 MOL      0.571335
     13 O3          5.3880   -3.3870    1.2850 o         1 MOL     -0.680036
     14 O4          3.5030   -2.5720    0.5110 o         1 MOL     -0.680036
     15 H4          0.9530   -5.6650    3.3870 hn        1 MOL      0.334258
     16 H5          1.4750   -3.2150    1.9560 h1        1 MOL      0.125629
     17 H6          4.0760   -4.6470    2.9440 hc        1 MOL      0.007819
     18 H7          3.4720   -3.1750    3.3610 hc        1 MOL      0.007819
     19 N2          1.5200   -4.6710   -0.1110 n         1 MOL     -0.226196
     20 C7          1.3240   -5.4270   -1.3700 c3        1 MOL     -0.089784
     21 C8          2.5710   -5.1830   -2.2720 c         1 MOL      0.570841
     22 O5          2.9120   -6.0380   -3.1360 o         1 MOL     -0.587253
     23 C9          0.0560   -4.9710   -2.1210 c3        1 MOL      0.293549
     24 C10        -1.1310   -5.2070   -1.1350 c3        1 MOL      0.111561
     25 C11        -0.2470   -5.6090   -3.4920 c3        1 MOL     -0.369641
     26 C12        -2.4460   -4.5660   -1.5450 c3        1 MOL     -0.222051
     27 H8          1.4500   -3.6600   -0.0880 hn        1 MOL      0.051430
     28 H9          1.2610   -6.4880   -1.1400 h1        1 MOL      0.073461
     29 H10         0.0770   -3.9010   -2.2960 hc        1 MOL      0.011066
     30 H11        -0.9640   -4.8820   -0.1150 hc        1 MOL     -0.045519
     31 H12        -1.2520   -6.2790   -1.0310 hc        1 MOL     -0.045519
     32 H13        -1.1300   -5.1400   -3.9240 hc        1 MOL      0.074504
     33 H14         0.6060   -5.5120   -4.1600 hc        1 MOL      0.074504
     34 H15        -0.3140   -6.6960   -3.4110 hc        1 MOL      0.074504
     35 H16        -2.7670   -4.8480   -2.5470 hc        1 MOL      0.044431
     36 H17        -3.2180   -4.8400   -0.8250 hc        1 MOL      0.044431
     37 H18        -2.4270   -3.4780   -1.4530 hc        1 MOL      0.044431
     38 N3          3.3130   -4.0550   -2.1260 n         1 MOL     -0.557450
     39 C13         4.0510   -3.3780   -3.2560 c3        1 MOL      0.063126
     40 C14         5.3660   -2.6920   -2.9680 c         1 MOL      0.408420
     41 O6          6.0640   -2.1370   -3.8540 o         1 MOL     -0.590850
     42 C15         2.9920   -2.4010   -3.9280 c3        1 MOL     -0.201356
     43 C16         2.3030   -1.3620   -3.0330 c         1 MOL      0.735990
     44 O7          2.8760   -1.1860   -1.9160 o         1 MOL     -0.701059
     45 O8          1.3080   -0.6780   -3.3750 o         1 MOL     -0.701059
     46 H19         3.1110   -3.5150   -1.2930 hn        1 MOL      0.425313
     47 H20         4.4080   -4.0850   -4.0020 h1        1 MOL      0.099428
     48 H21         2.2690   -2.9600   -4.5280 hc        1 MOL      0.050717
     49 H22         3.5310   -1.7920   -4.6480 hc        1 MOL      0.050717
     50 N4          5.7650   -2.7200   -1.7340 n         1 MOL     -0.183767
     51 C17         7.0950   -2.3330   -1.2520 c3        1 MOL     -0.061678
     52 C18         7.3590   -0.8620   -1.5190 c         1 MOL      0.350791
     53 O9          8.4810   -0.3240   -1.4020 o         1 MOL     -0.596202
     54 H23         5.1720   -3.1870   -1.0710 hn        1 MOL      0.172543
     55 H24         7.8560   -3.0460   -1.5740 h1        1 MOL      0.085115
     56 H25         7.1410   -2.3740   -0.1580 h1        1 MOL      0.085115
     57 N5          6.3050   -0.0470   -1.7710 n         1 MOL      0.034570
     58 C19         6.4330    1.2810   -2.2970 c3        1 MOL      0.012228
     59 C20         6.9610    2.3330   -1.3540 c         1 MOL      0.466662
     60 O10         7.5210    3.3820   -1.6960 o         1 MOL     -0.558869
     61 C21         5.1960    1.7460   -3.0230 c3        1 MOL     -0.361928
     62 C22         3.9660    1.8460   -2.1300 c         1 MOL      0.888554
     63 O11         4.0360    1.3750   -1.0020 o         1 MOL     -0.752092
     64 O12         2.9750    2.5550   -2.4880 o         1 MOL     -0.752092
     65 H26         5.3470   -0.3160   -1.6330 hn        1 MOL      0.171251
     66 H27         7.2440    1.1600   -3.0130 h1        1 MOL      0.070204
     67 H28         4.9200    1.0230   -3.7960 hc        1 MOL      0.078657
     68 H29         5.4700    2.7340   -3.3950 hc        1 MOL      0.078657
     69 N6          6.7770    1.9980   -0.0390 n         1 MOL     -0.238563
     70 C23         7.0920    3.0400    1.0080 c3        1 MOL     -0.190325
     71 C24         5.9400    3.9930    1.4350 c         1 MOL      0.581266
     72 O13         6.2280    4.9050    2.1300 o         1 MOL     -0.572152
     73 H30         6.4160    1.0610    0.0890 hn        1 MOL      0.181426
     74 H31         7.9190    3.6020    0.5780 h1        1 MOL      0.095770
     75 H32         7.5370    2.5920    1.8970 h1        1 MOL      0.095770
     76 N7          4.6570    3.7170    1.0240 n         1 MOL     -0.366607
     77 C25         3.4100    4.3860    1.5600 c3        1 MOL     -0.041468
     78 C26         2.2510    3.3690    1.7000 c         1 MOL      0.372281
     79 O14         2.2150    2.3580    0.9660 o         1 MOL     -0.450554
     80 C27         2.9730    5.4700    0.5350 c3        1 MOL     -0.076868
     81 C28         4.0500    6.4950    0.1810 c3        1 MOL     -0.417889
     82 C29         3.4390    7.7630   -0.4310 c         1 MOL      0.698923
     83 N8          3.2510    7.8220   -1.7240 n         1 MOL     -0.802560
     84 O15         3.2050    8.7660    0.2470 o         1 MOL     -0.602105
     85 H33         4.6040    2.8830    0.4600 hn        1 MOL      0.264239
     86 H34         3.7050    4.7190    2.5570 h1        1 MOL      0.080680
     87 H35         2.0870    5.9350    0.9430 hc        1 MOL      0.101973
     88 H36         2.5630    4.9710   -0.3430 hc        1 MOL      0.101973
     89 H37         4.7600    6.0680   -0.5340 hc        1 MOL      0.156914
     90 H38         4.5380    6.6740    1.1300 hc        1 MOL      0.156914
     91 H39         3.3830    6.9670   -2.2450 hn        1 MOL      0.368644
     92 H40         3.1130    8.7400   -2.1200 hn        1 MOL      0.368644
     93 N9          1.3260    3.6000    2.5880 n         1 MOL     -0.332757
     94 C30         0.0450    2.7440    2.6600 c3        1 MOL     -0.069020
     95 C31        -0.9970    3.1650    1.6110 c         1 MOL      0.462412
     96 O16        -1.2340    4.4150    1.5220 o         1 MOL     -0.586433
     97 C32        -0.5460    2.8270    4.0850 c3        1 MOL      0.298275
     98 C33        -1.8190    2.0360    4.2020 c3        1 MOL     -0.334160
     99 C34         0.4340    2.2830    5.0940 c3        1 MOL     -0.334160
    100 H41         1.3630    4.4820    3.0720 hn        1 MOL      0.276903
    101 H42         0.2720    1.6940    2.4780 h1        1 MOL      0.073289
    102 H43        -0.6370    3.8700    4.3700 hc        1 MOL     -0.025768
    103 H44        -2.2080    2.1000    5.2150 hc        1 MOL      0.067861
    104 H45        -2.6320    2.4610    3.6130 hc        1 MOL      0.067861
    105 H46        -1.6670    1.0040    3.8770 hc        1 MOL      0.067861
    106 H47         0.8410    1.3140    4.8110 hc        1 MOL      0.067861
    107 H48         1.2560    2.9990    5.0980 hc        1 MOL      0.067861
    108 H49        -0.0250    2.2200    6.0780 hc        1 MOL      0.067861
    109 N10        -1.5470    2.2290    0.8190 n         1 MOL     -0.157036
    110 C35        -2.6710    2.4660   -0.1270 c3        1 MOL      0.123585
    111 C36        -3.9840    2.0570    0.6500 c         1 MOL      0.203811
    112 O17        -3.9810    1.4830    1.7320 o         1 MOL     -0.287314
    113 C37        -2.5760    1.4780   -1.3050 c3        1 MOL     -0.407579
    114 C38        -3.5790    1.7190   -2.4320 c         1 MOL      0.831272
    115 N11        -3.7930    2.9260   -2.8180 n         1 MOL     -0.878546
    116 O18        -4.2520    0.8000   -2.9020 o         1 MOL     -0.596188
    117 H50        -0.9560    1.4180    0.7770 hn        1 MOL      0.202663
    118 H51        -2.6840    3.5120   -0.4400 h1        1 MOL      0.024392
    119 H52        -2.7380    0.4460   -0.9850 hc        1 MOL      0.136149
    120 H53        -1.6050    1.4930   -1.8050 hc        1 MOL      0.136149
    121 H54        -3.3530    3.6520   -2.2850 hn        1 MOL      0.398201
    122 H55        -4.5030    3.0800   -3.5290 hn        1 MOL      0.398201
    123 N12        -5.1380    2.4300    0.0830 n         1 MOL     -0.264852
    124 C39        -6.4280    2.1600    0.7850 c3        1 MOL      0.315565
    125 C40        -6.7500    0.6550    0.8540 c         1 MOL      0.224623
    126 O19        -7.5950    0.1780    1.6670 o         1 MOL     -0.542661
    127 C41        -7.5260    2.9830    0.1250 c3        1 MOL     -0.421651
    128 C42        -7.5120    3.0400   -1.4220 ca        1 MOL      0.185698
    129 C43        -7.1560    4.2630   -2.0750 ca        1 MOL     -0.222267
    130 C44        -7.7310    1.7970   -2.1010 ca        1 MOL     -0.222267
    131 C45        -7.1170    4.2140   -3.4650 ca        1 MOL     -0.209458
    132 C46        -7.7290    1.8470   -3.4980 ca        1 MOL     -0.209458
    133 C47        -7.3430    3.0290   -4.1680 ca        1 MOL      0.290312
    134 O20        -7.1330    2.9920   -5.5070 oh        1 MOL     -0.542664
    135 H56        -5.1390    2.9130   -0.8040 hn        1 MOL      0.156419
    136 H57        -6.3980    2.4650    1.8270 h1        1 MOL      0.031276
    137 H58        -7.4020    3.9430    0.6250 hc        1 MOL      0.117853
    138 H59        -8.4880    2.5430    0.4080 hc        1 MOL      0.117853
    139 H60        -6.8900    5.1560   -1.5440 ha        1 MOL      0.140106
    140 H61        -8.0750    0.8570   -1.6970 ha        1 MOL      0.140106
    141 H62        -6.8140    5.1330   -3.9500 ha        1 MOL      0.115345
    142 H63        -7.8030    0.9790   -4.1380 ha        1 MOL      0.115345
    143 H64        -7.5370    2.1520   -5.7780 ho        1 MOL      0.413069
    144 N13        -6.0950   -0.1850    0.0500 n         1 MOL      0.051308
    145 C48        -6.1340   -1.5950    0.1080 c3        1 MOL     -0.203461
    146 C49        -5.1360   -2.2420    1.1150 c         1 MOL      0.454433
    147 O21        -5.1740   -3.4430    1.1770 o         1 MOL     -0.524968
    148 C50        -5.9900   -2.2830   -1.2610 c3        1 MOL      0.335006
    149 C51        -6.7390   -1.7770   -2.5560 c3        1 MOL     -0.011837
    150 C52        -8.2590   -2.0420   -2.6890 c         1 MOL      0.645141
    151 O22        -9.0880   -1.5980   -1.8360 o         1 MOL     -0.708735
    152 O23        -8.6630   -2.9650   -3.4530 o         1 MOL     -0.708735
    153 H65        -5.4080    0.1480   -0.6050 hn        1 MOL      0.186828
    154 H66        -7.1580   -1.8760    0.3730 h1        1 MOL      0.131255
    155 H67        -6.3430   -3.3100   -1.1210 hc        1 MOL     -0.085103
    156 H68        -4.9140   -2.3000   -1.4300 hc        1 MOL     -0.085103
    157 H69        -6.2980   -2.2930   -3.4110 hc        1 MOL     -0.053365
    158 H70        -6.4070   -0.7560   -2.7320 hc        1 MOL     -0.053365
    159 N14        -4.4300   -1.4300    1.9280 n         1 MOL     -0.218431
    160 C53        -3.6070   -1.9290    2.9980 c3        1 MOL     -0.001514
    161 C54        -3.9790   -1.2890    4.3380 c         1 MOL      0.434525
    162 O24        -3.8440   -2.0010    5.3590 o         1 MOL     -0.577138
    163 C55        -2.1690   -1.6110    2.5800 c3        1 MOL     -0.074065
    164 C56        -1.6870   -2.1030    1.2010 c3        1 MOL     -0.128114
    165 C57        -0.3430   -1.5070    0.7720 c         1 MOL      0.598780
    166 O25         0.2930   -2.1820   -0.0460 o         1 MOL     -0.645226
    167 O26         0.0050   -0.4040    1.2410 o         1 MOL     -0.645226
    168 H71        -4.4580   -0.4400    1.7650 hn        1 MOL      0.018014
    169 H72        -3.6550   -3.0160    3.0650 h1        1 MOL      0.071478
    170 H73        -1.4920   -1.9660    3.3630 hc        1 MOL      0.058271
    171 H74        -2.1270   -0.5320    2.7000 hc        1 MOL      0.058271
    172 H75        -2.4410   -1.9290    0.4330 hc        1 MOL      0.084568
    173 H76        -1.6120   -3.1850    1.2380 hc        1 MOL      0.084568
    174 N15        -4.3870   -0.0740    4.2930 n         1 MOL     -0.050335
    175 C58        -4.9750    0.6080    5.4120 c3        1 MOL     -0.193790
    176 H77        -4.5660    0.2050    6.3390 h1        1 MOL      0.075253
    177 H78        -4.7500    1.6720    5.3480 h1        1 MOL      0.075253
    178 H79        -6.0560    0.4630    5.4000 h1        1 MOL      0.075253
    179 H80        -4.2910    0.4450    3.4340 hn        1 MOL      0.124264
    180 Ca1         2.4580   -0.1750    0.3970 Ca        1 MOL      1.734682
    181 O27         2.2790   -0.8200    3.0290 oh        1 MOL     -0.913810
    182 O28         1.0580    1.2070   -1.4730 oh        1 MOL     -0.913810
    183 H81         2.8050   -0.5770    3.7930 ho        1 MOL      0.425899
    184 H82         1.6180    1.8650   -1.8910 ho        1 MOL      0.425899
    185 H83         1.6670   -1.4660    3.3590 ho        1 MOL      0.425899
    186 H84         1.0320    0.4830   -2.1000 ho        1 MOL      0.425899
    187 O29         4.9240   -0.2120    1.1970 oh        1 MOL     -0.913810
    188 H85         5.2610   -1.1060    1.1370 ho        1 MOL      0.425899
    189 H86         5.2450    0.1030    2.0460 ho        1 MOL      0.425899
@<TRIPOS>BOND
     1    1    2 1   
     2    1    4 1   
     3    1    5 1   
     4    1    6 1   
     5    2    3 2   
     6    2    7 1   
     7    7    8 1   
     8    7   15 1   
     9    8    9 1   
    10    8   11 1   
    11    8   16 1   
    12    9   10 2   
    13    9   19 1   
    14   11   12 1   
    15   11   17 1   
    16   11   18 1   
    17   12   13 1   
    18   12   14 1   
    19   19   20 1   
    20   19   27 1   
    21   20   21 1   
    22   20   23 1   
    23   20   28 1   
    24   21   22 2   
    25   21   38 1   
    26   23   24 1   
    27   23   25 1   
    28   23   29 1   
    29   24   26 1   
    30   24   30 1   
    31   24   31 1   
    32   25   32 1   
    33   25   33 1   
    34   25   34 1   
    35   26   35 1   
    36   26   36 1   
    37   26   37 1   
    38   38   39 1   
    39   38   46 1   
    40   39   40 1   
    41   39   42 1   
    42   39   47 1   
    43   40   41 2   
    44   40   50 1   
    45   42   43 1   
    46   42   48 1   
    47   42   49 1   
    48   43   44 1   
    49   43   45 1   
    50   50   51 1   
    51   50   54 1   
    52   51   52 1   
    53   51   55 1   
    54   51   56 1   
    55   52   53 2   
    56   52   57 1   
    57   57   58 1   
    58   57   65 1   
    59   58   59 1   
    60   58   61 1   
    61   58   66 1   
    62   59   60 2   
    63   59   69 1   
    64   61   62 1   
    65   61   67 1   
    66   61   68 1   
    67   62   63 1   
    68   62   64 1   
    69   69   70 1   
    70   69   73 1   
    71   70   71 1   
    72   70   74 1   
    73   70   75 1   
    74   71   72 2   
    75   71   76 1   
    76   76   77 1   
    77   76   85 1   
    78   77   78 1   
    79   77   80 1   
    80   77   86 1   
    81   78   79 2   
    82   78   93 1   
    83   80   81 1   
    84   80   87 1   
    85   80   88 1   
    86   81   82 1   
    87   81   89 1   
    88   81   90 1   
    89   82   83 1   
    90   82   84 2   
    91   83   91 1   
    92   83   92 1   
    93   93   94 1   
    94   93  100 1   
    95   94   95 1   
    96   94   97 1   
    97   94  101 1   
    98   95   96 2   
    99   95  109 1   
   100   97   98 1   
   101   97   99 1   
   102   97  102 1   
   103   98  103 1   
   104   98  104 1   
   105   98  105 1   
   106   99  106 1   
   107   99  107 1   
   108   99  108 1   
   109  109  110 1   
   110  109  117 1   
   111  110  111 1   
   112  110  113 1   
   113  110  118 1   
   114  111  112 2   
   115  111  123 1   
   116  113  114 1   
   117  113  119 1   
   118  113  120 1   
   119  114  115 1   
   120  114  116 2   
   121  115  121 1   
   122  115  122 1   
   123  123  124 1   
   124  123  135 1   
   125  124  125 1   
   126  124  127 1   
   127  124  136 1   
   128  125  126 2   
   129  125  144 1   
   130  127  128 1   
   131  127  137 1   
   132  127  138 1   
   133  128  129 ar  
   134  128  130 ar  
   135  129  131 ar  
   136  129  139 1   
   137  130  132 ar  
   138  130  140 1   
   139  131  133 ar  
   140  131  141 1   
   141  132  133 ar  
   142  132  142 1   
   143  133  134 1   
   144  134  143 1   
   145  144  145 1   
   146  144  153 1   
   147  145  146 1   
   148  145  148 1   
   149  145  154 1   
   150  146  147 2   
   151  146  159 1   
   152  148  149 1   
   153  148  155 1   
   154  148  156 1   
   155  149  150 1   
   156  149  157 1   
   157  149  158 1   
   158  150  151 1   
   159  150  152 1   
   160  159  160 1   
   161  159  168 1   
   162  160  161 1   
   163  160  163 1   
   164  160  169 1   
   165  161  162 2   
   166  161  174 1   
   167  163  164 1   
   168  163  170 1   
   169  163  171 1   
   170  164  165 1   
   171  164  172 1   
   172  164  173 1   
   173  165  166 1   
   174  165  167 1   
   175  174  175 1   
   176  174  179 1   
   177  175  176 1   
   178  175  177 1   
   179  175  178 1   
   180  181  183 1   
   181  181  185 1   
   182  182  184 1   
   183  182  186 1   
   184  187  188 1   
   185  187  189 1   
@<TRIPOS>SUBSTRUCTURE
     1 MOL         1 TEMP              0 ****  ****    0 ROOT
