@<TRIPOS>MOLECULE
MOL
  186   183     1     0     0
SMALL
resp


@<TRIPOS>ATOM
      1 C1          0.9400   -0.6410    6.1880 c3        1 MOL     -0.348700
      2 C2          1.1030   -0.7600    4.6750 c         1 MOL      0.703072
      3 O1          0.2560   -1.3090    4.0080 o         1 MOL     -0.536741
      4 H1          1.7820   -0.0860    6.6000 hc        1 MOL      0.082492
      5 H2          0.0130   -0.1130    6.4140 hc        1 MOL      0.082492
      6 H3          0.9090   -1.6360    6.6300 hc        1 MOL      0.082492
      7 N1          2.2300   -0.3470    4.0860 n         1 MOL     -0.488836
      8 C3          2.6760   -0.8570    2.7730 c3        1 MOL      0.090544
      9 C4          2.9000   -2.4200    2.7420 c         1 MOL      0.408506
     10 O2          3.5430   -3.0650    3.5950 o         1 MOL     -0.599685
     11 C5          3.9490   -0.1810    2.3570 c3        1 MOL     -0.120826
     12 C6          4.5280   -0.7210    1.0790 c         1 MOL      0.541223
     13 O3          5.7190   -0.9760    1.1110 o         1 MOL     -0.484935
     14 O4          3.7700   -0.9490    0.0800 o         1 MOL     -0.484935
     15 H4          2.8910    0.2670    4.5320 hn        1 MOL      0.270497
     16 H5          1.8970   -0.6520    2.0420 h1        1 MOL      0.019182
     17 H6          4.6130   -0.3650    3.2000 hc        1 MOL      0.022148
     18 H7          3.7280    0.8830    2.2480 hc        1 MOL      0.022148
     19 N2          2.3160   -3.0420    1.7530 n         1 MOL     -0.012445
     20 C7          2.3630   -4.4430    1.4140 c3        1 MOL     -0.050481
     21 C8          3.4040   -4.7770    0.3370 c         1 MOL      0.285002
     22 O5          3.9680   -5.8720    0.2600 o         1 MOL     -0.529786
     23 C9          0.8540   -4.8350    1.1810 c3        1 MOL      0.184869
     24 C10         0.1090   -4.8990    2.5110 c3        1 MOL      0.082892
     25 C11         0.9210   -6.2280    0.4890 c3        1 MOL     -0.268740
     26 C12        -1.3460   -5.4240    2.3100 c3        1 MOL     -0.143448
     27 H8          1.7860   -2.4370    1.1500 hn        1 MOL      0.036449
     28 H9          2.5930   -4.9820    2.3250 h1        1 MOL      0.078914
     29 H10         0.3310   -4.2550    0.4370 hc        1 MOL      0.084405
     30 H11         0.1430   -3.9110    2.9670 hc        1 MOL     -0.026776
     31 H12         0.6580   -5.6150    3.1150 hc        1 MOL     -0.026776
     32 H13         1.5410   -6.2750   -0.4010 hc        1 MOL      0.051348
     33 H14         1.2220   -7.0060    1.1940 hc        1 MOL      0.051348
     34 H15        -0.1090   -6.4910    0.2320 hc        1 MOL      0.051348
     35 H16        -1.7480   -4.9400    1.4160 hc        1 MOL      0.022469
     36 H17        -1.3650   -6.5050    2.1820 hc        1 MOL      0.022469
     37 H18        -1.9900   -5.1710    3.1440 hc        1 MOL      0.022469
     38 N3          3.7730   -3.8540   -0.5750 n         1 MOL      0.089713
     39 C13         4.7710   -4.1080   -1.6600 c3        1 MOL     -0.181983
     40 C14         6.3020   -4.1020   -1.2060 c         1 MOL      0.479967
     41 O6          7.0740   -4.9790   -1.6490 o         1 MOL     -0.558502
     42 C15         4.5530   -3.0070   -2.7380 c3        1 MOL      0.080920
     43 C16         3.0140   -2.9470   -3.1770 c         1 MOL      0.542250
     44 O7          2.6330   -3.9660   -3.7610 o         1 MOL     -0.656522
     45 O8          2.2440   -1.9700   -2.9160 o         1 MOL     -0.656522
     46 H19         3.4500   -2.8960   -0.5720 hn        1 MOL      0.067343
     47 H20         4.7100   -5.1420   -2.0020 h1        1 MOL      0.109345
     48 H21         5.1870   -3.0940   -3.6190 hc        1 MOL     -0.032435
     49 H22         4.7220   -2.0410   -2.2540 hc        1 MOL     -0.032435
     50 N4          6.6790   -3.1760   -0.2720 n         1 MOL     -0.126233
     51 C17         8.0730   -2.8130    0.0690 c3        1 MOL     -0.228504
     52 C18         8.4530   -1.4290   -0.5030 c         1 MOL      0.524536
     53 O9          9.6490   -1.2210   -0.8490 o         1 MOL     -0.624489
     54 H23         5.9750   -2.5100    0.0160 hn        1 MOL      0.040305
     55 H24         8.6320   -3.5780   -0.4640 h1        1 MOL      0.107560
     56 H25         8.1870   -2.8560    1.1560 h1        1 MOL      0.107560
     57 N5          7.5440   -0.5140   -0.7650 n         1 MOL     -0.166986
     58 C19         7.7630    0.8230   -1.3240 c3        1 MOL      0.088440
     59 C20         7.6890    1.9080   -0.2660 c         1 MOL      0.315831
     60 O10         8.1560    3.0190   -0.5280 o         1 MOL     -0.543728
     61 C21         6.7440    1.1230   -2.4230 c3        1 MOL     -0.506543
     62 C22         5.2110    0.8110   -2.2260 c         1 MOL      0.841233
     63 O11         4.6740    1.2320   -1.1910 o         1 MOL     -0.778368
     64 O12         4.4290    0.4170   -3.1460 o         1 MOL     -0.778368
     65 H26         6.6100   -0.7720   -0.4520 hn        1 MOL      0.154768
     66 H27         8.7550    0.8770   -1.7740 h1        1 MOL      0.087392
     67 H28         7.1080    0.6390   -3.3270 hc        1 MOL      0.140164
     68 H29         6.7570    2.1980   -2.5730 hc        1 MOL      0.140164
     69 N6          6.9990    1.6090    0.7890 n         1 MOL     -0.089561
     70 C23         6.7080    2.6620    1.8580 c3        1 MOL     -0.036861
     71 C24         5.6410    3.7400    1.5640 c         1 MOL      0.534216
     72 O13         5.5850    4.8330    2.0910 o         1 MOL     -0.583413
     73 H30         6.6020    0.6830    0.9050 hn        1 MOL      0.046713
     74 H31         7.5900    3.2410    2.0990 h1        1 MOL      0.051205
     75 H32         6.4450    2.0850    2.7340 h1        1 MOL      0.051205
     76 N7          4.6600    3.4070    0.7030 n         1 MOL     -0.378185
     77 C25         3.3430    4.1080    0.5710 c3        1 MOL      0.055881
     78 C26         2.1780    3.1900    0.6660 c         1 MOL      0.587837
     79 O14         2.2010    2.0000    0.3170 o         1 MOL     -0.567633
     80 C27         3.3190    5.0040   -0.6790 c3        1 MOL     -0.204400
     81 C28         4.1260    6.3540   -0.4560 c3        1 MOL     -0.122851
     82 C29         3.9120    7.2820   -1.6040 c         1 MOL      0.582531
     83 N8          4.5540    7.0660   -2.7180 n         1 MOL     -0.776409
     84 O15         3.0410    8.2020   -1.5270 o         1 MOL     -0.581660
     85 H33         4.7340    2.5240    0.2300 hn        1 MOL      0.329985
     86 H34         3.1910    4.7830    1.4100 h1        1 MOL      0.072281
     87 H35         2.3060    5.2200   -1.0260 hc        1 MOL      0.100971
     88 H36         3.8140    4.4220   -1.4600 hc        1 MOL      0.100971
     89 H37         5.1970    6.1630   -0.3720 hc        1 MOL      0.079177
     90 H38         3.8410    6.9120    0.4370 hc        1 MOL      0.079177
     91 H39         5.3370    6.4310   -2.8360 hn        1 MOL      0.361860
     92 H40         4.2020    7.5900   -3.5090 hn        1 MOL      0.361860
     93 N9          0.9840    3.7180    0.9820 n         1 MOL     -0.504515
     94 C30        -0.2460    3.0030    1.3350 c3        1 MOL      0.004175
     95 C31        -1.3820    3.4740    0.4500 c         1 MOL      0.511245
     96 O16        -1.6100    4.6660    0.3300 o         1 MOL     -0.563610
     97 C32        -0.5780    3.3280    2.7700 c3        1 MOL      0.180880
     98 C33        -1.9140    2.7830    3.2580 c3        1 MOL     -0.138530
     99 C34         0.5950    2.8530    3.7010 c3        1 MOL     -0.138530
    100 H41         1.0350    4.7010    1.2080 hn        1 MOL      0.272421
    101 H42        -0.1660    1.9130    1.2630 h1        1 MOL      0.186195
    102 H43        -0.6360    4.4140    2.8970 hc        1 MOL     -0.003631
    103 H44        -1.9560    2.8980    4.3380 hc        1 MOL      0.014824
    104 H45        -2.7870    3.3050    2.8630 hc        1 MOL      0.014824
    105 H46        -2.0880    1.7240    3.0700 hc        1 MOL      0.014824
    106 H47         0.7550    1.7800    3.7460 hc        1 MOL      0.014824
    107 H48         1.5530    3.3370    3.4970 hc        1 MOL      0.014824
    108 H49         0.2380    3.2100    4.6700 hc        1 MOL      0.014824
    109 N10        -2.0190    2.5010   -0.1980 n         1 MOL     -0.343751
    110 C35        -3.1590    2.7650   -1.0080 c3        1 MOL      0.257723
    111 C36        -4.4010    2.0450   -0.4060 c         1 MOL      0.339497
    112 O17        -4.2980    1.1840    0.4750 o         1 MOL     -0.230230
    113 C37        -2.8980    2.2370   -2.4500 c3        1 MOL     -0.309949
    114 C38        -3.4570    0.8360   -2.8040 c         1 MOL      0.623368
    115 N11        -2.7170   -0.1620   -2.6840 n         1 MOL     -0.713757
    116 O18        -4.6620    0.6680   -3.1570 o         1 MOL     -0.602931
    117 H50        -1.8180    1.5510    0.0470 hn        1 MOL      0.100247
    118 H51        -3.2790    3.8480   -1.0760 h1        1 MOL      0.048332
    119 H52        -1.8580    2.2440   -2.7540 hc        1 MOL      0.095432
    120 H53        -3.3290    2.9550   -3.1580 hc        1 MOL      0.095432
    121 H54        -1.7840   -0.0270   -2.3200 hn        1 MOL      0.405532
    122 H55        -3.2180   -1.0360   -2.6840 hn        1 MOL      0.405532
    123 N12        -5.6360    2.4230   -0.7880 n         1 MOL     -0.669439
    124 C39        -6.9110    1.9760   -0.1430 c3        1 MOL      0.379746
    125 C40        -6.9770    0.4060    0.0590 c         1 MOL      0.710404
    126 O19        -7.2620    0.0280    1.1730 o         1 MOL     -0.563398
    127 C41        -8.0470    2.5310   -0.9270 c3        1 MOL     -0.232954
    128 C42        -9.3940    2.0790   -0.3730 ca        1 MOL      0.138866
    129 C43        -9.7170    2.4370    0.9720 ca        1 MOL     -0.253002
    130 C44       -10.3090    1.4650   -1.1940 ca        1 MOL     -0.253002
    131 C45       -10.8950    1.8950    1.5020 ca        1 MOL     -0.194703
    132 C46       -11.4770    0.8600   -0.6620 ca        1 MOL     -0.194703
    133 C47       -11.8350    1.1460    0.7190 ca        1 MOL      0.278254
    134 O20       -13.0020    0.7240    1.2770 oh        1 MOL     -0.517738
    135 H56        -5.7850    2.7220   -1.7400 hn        1 MOL      0.315347
    136 H57        -7.0350    2.4070    0.8410 h1        1 MOL      0.013257
    137 H58        -7.8310    2.2290   -1.9510 hc        1 MOL      0.063718
    138 H59        -7.9710    3.6160   -0.9430 hc        1 MOL      0.063718
    139 H60        -9.0840    3.0270    1.6070 ha        1 MOL      0.159343
    140 H61       -10.0680    1.2870   -2.2250 ha        1 MOL      0.159343
    141 H62       -11.1240    2.0260    2.5490 ha        1 MOL      0.135663
    142 H63       -12.0570    0.2630   -1.3440 ha        1 MOL      0.135663
    143 H64       -13.5430    0.1490    0.7320 ho        1 MOL      0.386496
    144 N13        -6.4490   -0.4080   -0.8900 n         1 MOL     -0.769133
    145 C48        -6.5110   -1.9140   -0.7530 c3        1 MOL      0.063500
    146 C49        -5.5500   -2.4650    0.3020 c         1 MOL      0.307444
    147 O21        -5.8080   -3.5760    0.8050 o         1 MOL     -0.517561
    148 C50        -6.1240   -2.4770   -2.1400 c3        1 MOL     -0.012943
    149 C51        -7.3060   -2.4550   -3.0650 c3        1 MOL     -0.220496
    150 C52        -7.0280   -2.9970   -4.4610 c         1 MOL      0.702482
    151 O22        -7.7080   -3.9020   -4.9780 o         1 MOL     -0.731669
    152 O23        -6.2880   -2.4100   -5.2770 o         1 MOL     -0.731669
    153 H65        -6.1380   -0.0950   -1.7970 hn        1 MOL      0.392383
    154 H66        -7.5310   -2.2190   -0.5570 h1        1 MOL      0.116843
    155 H67        -5.7110   -3.4860   -2.0710 hc        1 MOL      0.026111
    156 H68        -5.2870   -1.9050   -2.5390 hc        1 MOL      0.026111
    157 H69        -7.6950   -1.4430   -3.1940 hc        1 MOL      0.031045
    158 H70        -8.1070   -3.0790   -2.6480 hc        1 MOL      0.031045
    159 N14        -4.4890   -1.7330    0.5460 n         1 MOL     -0.111646
    160 C53        -3.6450   -2.0300    1.6180 c3        1 MOL      0.042701
    161 C54        -4.1090   -1.3810    2.9670 c         1 MOL      0.399869
    162 O24        -3.9860   -1.9340    4.0420 o         1 MOL     -0.550346
    163 C55        -2.1990   -1.5180    1.3860 c3        1 MOL      0.138375
    164 C56        -1.5210   -1.9330    0.0250 c3        1 MOL     -0.019852
    165 C57        -0.2560   -1.1280   -0.2120 c         1 MOL      0.806802
    166 O25         0.8620   -1.7350   -0.2230 o         1 MOL     -0.805437
    167 O26        -0.2750    0.0120   -0.6100 o         1 MOL     -0.805437
    168 H71        -4.3750   -0.8050    0.1570 hn        1 MOL      0.196853
    169 H72        -3.7360   -3.1060    1.7200 h1        1 MOL      0.052447
    170 H73        -1.5700   -1.8130    2.2310 hc        1 MOL     -0.031792
    171 H74        -2.3470   -0.4410    1.4150 hc        1 MOL     -0.031792
    172 H75        -2.2570   -1.8680   -0.7780 hc        1 MOL     -0.050615
    173 H76        -1.2340   -2.9800    0.1520 hc        1 MOL     -0.050615
    174 N15        -4.7720   -0.2150    2.8520 n         1 MOL      0.030939
    175 C58        -5.4310    0.4600    3.9710 c3        1 MOL     -0.227677
    176 H77        -5.9360   -0.2790    4.5930 h1        1 MOL      0.077795
    177 H78        -4.6870    0.9880    4.5670 h1        1 MOL      0.077795
    178 H79        -6.1620    1.1720    3.5880 h1        1 MOL      0.077795
    179 H80        -4.8250    0.2160    1.9300 hn        1 MOL     -0.032195
    180 Ca1         2.2410    0.1430   -1.6430 Ca        1 MOL      1.742385
    181 O27         2.2240    2.3700   -3.2790 oh        1 MOL     -0.833129
    182 H81         2.0940    2.2080   -4.2120 ho        1 MOL      0.405893
    183 H82         2.6470    3.2320   -3.2420 ho        1 MOL      0.405893
    184 O28         0.4090    0.0310   -3.6050 oh        1 MOL     -0.833129
    185 H83         0.1550   -0.8940   -3.6820 ho        1 MOL      0.405893
    186 H84         0.4080    0.3640   -4.5050 ho        1 MOL      0.405893
@<TRIPOS>BOND
     1    1    2 1   
     2    1    4 1   
     3    1    5 1   
     4    1    6 1   
     5    2    3 2   
     6    2    7 1   
     7    7    8 1   
     8    7   15 1   
     9    8    9 1   
    10    8   11 1   
    11    8   16 1   
    12    9   10 2   
    13    9   19 1   
    14   11   12 1   
    15   11   17 1   
    16   11   18 1   
    17   12   13 1   
    18   12   14 1   
    19   19   20 1   
    20   19   27 1   
    21   20   21 1   
    22   20   23 1   
    23   20   28 1   
    24   21   22 2   
    25   21   38 1   
    26   23   24 1   
    27   23   25 1   
    28   23   29 1   
    29   24   26 1   
    30   24   30 1   
    31   24   31 1   
    32   25   32 1   
    33   25   33 1   
    34   25   34 1   
    35   26   35 1   
    36   26   36 1   
    37   26   37 1   
    38   38   39 1   
    39   38   46 1   
    40   39   40 1   
    41   39   42 1   
    42   39   47 1   
    43   40   41 2   
    44   40   50 1   
    45   42   43 1   
    46   42   48 1   
    47   42   49 1   
    48   43   44 1   
    49   43   45 1   
    50   50   51 1   
    51   50   54 1   
    52   51   52 1   
    53   51   55 1   
    54   51   56 1   
    55   52   53 2   
    56   52   57 1   
    57   57   58 1   
    58   57   65 1   
    59   58   59 1   
    60   58   61 1   
    61   58   66 1   
    62   59   60 2   
    63   59   69 1   
    64   61   62 1   
    65   61   67 1   
    66   61   68 1   
    67   62   63 1   
    68   62   64 1   
    69   69   70 1   
    70   69   73 1   
    71   70   71 1   
    72   70   74 1   
    73   70   75 1   
    74   71   72 2   
    75   71   76 1   
    76   76   77 1   
    77   76   85 1   
    78   77   78 1   
    79   77   80 1   
    80   77   86 1   
    81   78   79 2   
    82   78   93 1   
    83   80   81 1   
    84   80   87 1   
    85   80   88 1   
    86   81   82 1   
    87   81   89 1   
    88   81   90 1   
    89   82   83 1   
    90   82   84 2   
    91   83   91 1   
    92   83   92 1   
    93   93   94 1   
    94   93  100 1   
    95   94   95 1   
    96   94   97 1   
    97   94  101 1   
    98   95   96 2   
    99   95  109 1   
   100   97   98 1   
   101   97   99 1   
   102   97  102 1   
   103   98  103 1   
   104   98  104 1   
   105   98  105 1   
   106   99  106 1   
   107   99  107 1   
   108   99  108 1   
   109  109  110 1   
   110  109  117 1   
   111  110  111 1   
   112  110  113 1   
   113  110  118 1   
   114  111  112 2   
   115  111  123 1   
   116  113  114 1   
   117  113  119 1   
   118  113  120 1   
   119  114  115 1   
   120  114  116 2   
   121  115  121 1   
   122  115  122 1   
   123  123  124 1   
   124  123  135 1   
   125  124  125 1   
   126  124  127 1   
   127  124  136 1   
   128  125  126 2   
   129  125  144 1   
   130  127  128 1   
   131  127  137 1   
   132  127  138 1   
   133  128  129 ar  
   134  128  130 ar  
   135  129  131 ar  
   136  129  139 1   
   137  130  132 ar  
   138  130  140 1   
   139  131  133 ar  
   140  131  141 1   
   141  132  133 ar  
   142  132  142 1   
   143  133  134 1   
   144  134  143 1   
   145  144  145 1   
   146  144  153 1   
   147  145  146 1   
   148  145  148 1   
   149  145  154 1   
   150  146  147 2   
   151  146  159 1   
   152  148  149 1   
   153  148  155 1   
   154  148  156 1   
   155  149  150 1   
   156  149  157 1   
   157  149  158 1   
   158  150  151 1   
   159  150  152 1   
   160  159  160 1   
   161  159  168 1   
   162  160  161 1   
   163  160  163 1   
   164  160  169 1   
   165  161  162 2   
   166  161  174 1   
   167  163  164 1   
   168  163  170 1   
   169  163  171 1   
   170  164  165 1   
   171  164  172 1   
   172  164  173 1   
   173  165  166 1   
   174  165  167 1   
   175  174  175 1   
   176  174  179 1   
   177  175  176 1   
   178  175  177 1   
   179  175  178 1   
   180  181  182 1   
   181  181  183 1   
   182  184  185 1   
   183  184  186 1   
@<TRIPOS>SUBSTRUCTURE
     1 MOL         1 TEMP              0 ****  ****    0 ROOT
