@<TRIPOS>MOLECULE
MOL
  175   173     1     0     0
SMALL
resp


@<TRIPOS>ATOM
      1 C1          0.2170    3.7730    5.5440 c3        1 MOL     -0.291276
      2 C2         -0.3570    3.7740    4.1140 c         1 MOL      0.779784
      3 O1          0.3830    4.0990    3.2090 o         1 MOL     -0.569523
      4 H1          1.2720    3.5020    5.5120 hc        1 MOL      0.060020
      5 H2          0.1110    4.7670    5.9800 hc        1 MOL      0.060020
      6 H3         -0.3240    3.0490    6.1540 hc        1 MOL      0.060020
      7 N1         -1.6670    3.5110    3.9550 n         1 MOL     -0.744937
      8 C3         -2.2070    3.3530    2.6410 c3        1 MOL      0.409057
      9 C4         -2.4510    4.5980    1.8310 c         1 MOL      0.419735
     10 O2         -2.9160    5.6610    2.3890 o         1 MOL     -0.587939
     11 C5         -3.5160    2.6120    2.8750 c3        1 MOL     -0.319843
     12 C6         -4.2390    2.5180    1.4720 c         1 MOL      0.590518
     13 O3         -5.3970    2.9920    1.3360 o         1 MOL     -0.578292
     14 O4         -3.4850    2.0750    0.5190 o         1 MOL     -0.578292
     15 H4         -2.2900    3.4680    4.7620 hn        1 MOL      0.349075
     16 H5         -1.4900    2.7640    2.0600 h1        1 MOL     -0.005083
     17 H6         -4.1850    3.1220    3.5750 hc        1 MOL      0.051733
     18 H7         -3.2970    1.5750    3.1290 hc        1 MOL      0.051733
     19 N2         -2.3290    4.5320    0.5210 n         1 MOL     -0.301601
     20 C7         -2.6380    5.6010   -0.3940 c3        1 MOL      0.300801
     21 C8         -3.3630    5.1530   -1.6630 c         1 MOL      0.561120
     22 O5         -3.8110    6.0710   -2.3640 o         1 MOL     -0.606818
     23 C9         -1.3170    6.3300   -0.7120 c3        1 MOL     -0.347634
     24 H8         -1.8530    3.6940    0.2230 hn        1 MOL      0.180835
     25 H9         -3.3050    6.3050    0.1080 h1        1 MOL      0.028928
     26 H10        -1.6310    7.1240   -1.3910 hc        1 MOL      0.073042
     27 H11        -0.9160    6.7860    0.1990 hc        1 MOL      0.073042
     28 H12        -0.6700    5.6250   -1.2340 hc        1 MOL      0.073042
     29 N3         -3.8570    3.8900   -1.6870 n         1 MOL     -0.458081
     30 C10        -4.6600    3.3040   -2.8260 c3        1 MOL      0.192178
     31 C11        -5.9530    2.4850   -2.4600 c         1 MOL      0.391519
     32 O6         -6.7120    2.2530   -3.3510 o         1 MOL     -0.549320
     33 C12        -3.7120    2.4790   -3.6720 c3        1 MOL     -0.218611
     34 C13        -3.1550    1.2900   -2.8330 c         1 MOL      0.794713
     35 O7         -1.9500    0.9350   -2.9850 o         1 MOL     -0.762599
     36 O8         -3.8670    0.7920   -2.0180 o         1 MOL     -0.762599
     37 H13        -3.5870    3.2560   -0.9410 hn        1 MOL      0.204738
     38 H14        -4.9210    4.1540   -3.4520 h1        1 MOL      0.048197
     39 H15        -2.8200    3.0650   -3.9240 hc        1 MOL      0.042340
     40 H16        -4.2270    2.1220   -4.5720 hc        1 MOL      0.042340
     41 N4         -6.2060    2.1600   -1.1440 n         1 MOL     -0.172157
     42 C14        -7.4500    1.4120   -0.7210 c3        1 MOL     -0.130552
     43 C15        -7.3190   -0.1000   -0.8870 c         1 MOL      0.473264
     44 O9         -8.2020   -0.8620   -0.4900 o         1 MOL     -0.627663
     45 H17        -5.5320    2.5410   -0.4990 hn        1 MOL      0.101900
     46 H18        -8.3430    1.8080   -1.2070 h1        1 MOL      0.105021
     47 H19        -7.7050    1.5920    0.3230 h1        1 MOL      0.105021
     48 N5         -6.2810   -0.7320   -1.4610 n         1 MOL     -0.092533
     49 C16        -6.2760   -2.1160   -2.0120 c3        1 MOL     -0.233072
     50 C17        -6.5020   -3.2100   -1.0020 c         1 MOL      0.582446
     51 O10        -6.7390   -4.3860   -1.2860 o         1 MOL     -0.555611
     52 C18        -4.9920   -2.3150   -2.9670 c3        1 MOL      0.029245
     53 C19        -3.6140   -2.3450   -2.2310 c         1 MOL      0.554029
     54 N6         -2.5940   -2.4380   -3.0730 n         1 MOL     -0.617489
     55 O11        -3.4140   -2.0980   -1.0800 o         1 MOL     -0.619451
     56 H20        -5.4870   -0.1000   -1.5240 hn        1 MOL      0.131280
     57 H21        -7.1840   -2.1170   -2.6110 h1        1 MOL      0.127451
     58 H22        -4.9520   -1.7050   -3.8690 hc        1 MOL      0.032416
     59 H23        -5.1450   -3.2750   -3.4630 hc        1 MOL      0.032416
     60 H24        -2.7620   -2.5920   -4.0490 hn        1 MOL      0.330298
     61 H25        -1.6770   -2.2020   -2.7010 hn        1 MOL      0.330298
     62 N7         -6.4290   -2.8350    0.3130 n         1 MOL     -0.191848
     63 C20        -6.4300   -3.8060    1.3680 c3        1 MOL     -0.280287
     64 C21        -5.0280   -4.4810    1.6610 c         1 MOL      0.573637
     65 O12        -4.9690   -5.4840    2.2910 o         1 MOL     -0.559726
     66 H26        -6.1770   -1.8770    0.5140 hn        1 MOL      0.237610
     67 H27        -7.1700   -4.5870    1.1720 h1        1 MOL      0.117655
     68 H28        -6.7490   -3.3370    2.2980 h1        1 MOL      0.117655
     69 N8         -3.8950   -3.9260    1.1100 n         1 MOL     -0.372009
     70 C22        -2.5370   -4.4690    1.2890 c3        1 MOL     -0.077163
     71 C23        -1.4110   -3.4230    1.3760 c         1 MOL      0.440976
     72 O13        -1.5270   -2.3430    0.8420 o         1 MOL     -0.429631
     73 C24        -2.1990   -5.3940    0.1120 c3        1 MOL      0.438110
     74 C25        -2.7330   -6.8090    0.1990 c3        1 MOL     -0.394601
     75 O14        -2.6060   -4.9490   -1.1410 oh        1 MOL     -0.591753
     76 H29        -4.1080   -3.2380    0.4040 hn        1 MOL      0.284913
     77 H30        -2.5470   -5.0300    2.2180 h1        1 MOL      0.084424
     78 H31        -1.1110   -5.5090    0.0660 h1        1 MOL     -0.014956
     79 H32        -2.6580   -3.9890   -1.1650 ho        1 MOL      0.311854
     80 H33        -2.5110   -7.4840   -0.6280 hc        1 MOL      0.095905
     81 H34        -2.3420   -7.3890    1.0310 hc        1 MOL      0.095905
     82 H35        -3.8160   -6.7820    0.3480 hc        1 MOL      0.095905
     83 N9         -0.3160   -3.7320    2.1170 n         1 MOL     -0.434305
     84 C26         0.8500   -2.8320    2.1110 c3        1 MOL      0.005515
     85 C27         1.6700   -3.1540    0.8590 c         1 MOL      0.562804
     86 O15         2.2040   -4.2760    0.7320 o         1 MOL     -0.596871
     87 C28         1.7550   -3.0060    3.3630 c3        1 MOL      0.164614
     88 C29         0.9000   -2.6250    4.5870 c3        1 MOL      0.224237
     89 C30         3.0630   -2.1820    3.3270 c3        1 MOL     -0.331696
     90 C31         1.5890   -2.7350    6.0180 c3        1 MOL     -0.440730
     91 H36        -0.1760   -4.6920    2.3860 hn        1 MOL      0.273740
     92 H37         0.5320   -1.7940    1.9890 h1        1 MOL      0.012520
     93 H38         1.9450   -4.0840    3.3140 hc        1 MOL     -0.016107
     94 H39         0.0660   -3.3350    4.5240 hc        1 MOL     -0.050297
     95 H40         0.4630   -1.6340    4.5200 hc        1 MOL     -0.050297
     96 H41         3.6420   -2.4010    4.2180 hc        1 MOL      0.077434
     97 H42         3.6520   -2.5380    2.4790 hc        1 MOL      0.077434
     98 H43         2.8790   -1.1090    3.3200 hc        1 MOL      0.077434
     99 H44         1.7580   -3.7760    6.2820 hc        1 MOL      0.099701
    100 H45         2.4370   -2.0560    6.0170 hc        1 MOL      0.099701
    101 H46         0.9940   -2.2610    6.7950 hc        1 MOL      0.099701
    102 N10         1.6970   -2.2340   -0.0680 n         1 MOL     -0.356833
    103 C32         2.6120   -2.1630   -1.2390 c3        1 MOL      0.014362
    104 C33         4.0230   -1.6790   -0.8420 c         1 MOL      0.670761
    105 O16         4.0900   -0.8240    0.0640 o         1 MOL     -0.509660
    106 C34         2.0160   -1.2190   -2.3480 c3        1 MOL     -0.398316
    107 C35         0.5760   -1.5750   -2.5190 c         1 MOL      0.913632
    108 O17         0.2330   -2.4360   -3.3440 o         1 MOL     -0.721055
    109 O18        -0.2940   -0.9580   -1.9150 o         1 MOL     -0.721055
    110 H47         1.0800   -1.4420    0.0110 hn        1 MOL      0.243148
    111 H48         2.6910   -3.1630   -1.6760 h1        1 MOL      0.062494
    112 H49         2.6080   -1.1860   -3.2650 hc        1 MOL      0.097835
    113 H50         2.0450   -0.2560   -1.8470 hc        1 MOL      0.097835
    114 N11         5.0620   -2.0030   -1.6080 n         1 MOL     -0.807343
    115 C36         6.3910   -1.5150   -1.2990 c3        1 MOL      0.538609
    116 C37         6.5700    0.0010   -1.1390 c         1 MOL      0.200299
    117 O19         7.2060    0.4040   -0.2330 o         1 MOL     -0.435563
    118 C38         7.4260   -1.9850   -2.3180 c3        1 MOL     -0.326615
    119 C39         8.8490   -1.6890   -1.8700 ca        1 MOL      0.136999
    120 C40         9.7270   -0.9510   -2.6570 ca        1 MOL     -0.152227
    121 C41         9.3970   -2.3850   -0.7370 ca        1 MOL     -0.152227
    122 C42        11.0350   -0.7710   -2.1760 ca        1 MOL     -0.134778
    123 C43        10.7550   -2.3420   -0.4520 ca        1 MOL     -0.134778
    124 C44        11.5640   -1.4520   -1.0950 ca        1 MOL     -0.075613
    125 H51         4.9000   -2.5630   -2.4440 hn        1 MOL      0.374208
    126 H52         6.7110   -1.9780   -0.3620 h1        1 MOL      0.036224
    127 H53         7.2240   -1.4000   -3.2220 hc        1 MOL      0.087572
    128 H54         7.3330   -3.0330   -2.6160 hc        1 MOL      0.087572
    129 H55         9.4060   -0.4790   -3.5750 ha        1 MOL      0.111081
    130 H56         8.7560   -3.0380   -0.1690 ha        1 MOL      0.111081
    131 H57        11.6810   -0.0300   -2.6430 ha        1 MOL      0.109368
    132 H58        11.1060   -2.9150    0.3900 ha        1 MOL      0.109368
    133 H59        12.5880   -1.2600   -0.8000 ha        1 MOL      0.096335
    134 N12         6.0800    0.9270   -1.9800 n         1 MOL     -0.011978
    135 C45         6.2970    2.3450   -1.7820 c3        1 MOL     -0.049608
    136 C46         5.7210    2.8200   -0.4340 c         1 MOL      0.278688
    137 O20         6.0910    3.9100    0.0130 o         1 MOL     -0.514735
    138 C47         5.4900    3.0030   -2.9720 c3        1 MOL      0.048522
    139 C48         5.8110    2.0560   -4.0890 c3        1 MOL     -0.175473
    140 C49         5.4150    0.7360   -3.2950 c3        1 MOL     -0.044218
    141 H60         7.3580    2.5790   -1.8730 h1        1 MOL      0.092581
    142 H61         4.4370    3.0600   -2.7330 hc        1 MOL      0.030746
    143 H62         5.8760    4.0140   -3.1360 hc        1 MOL      0.030746
    144 H63         5.1460    2.1440   -4.9430 hc        1 MOL      0.067480
    145 H64         6.8760    2.0730   -4.3330 hc        1 MOL      0.067480
    146 H65         4.3620    0.6900   -3.0420 h1        1 MOL      0.053733
    147 H66         5.7360   -0.1750   -3.7950 h1        1 MOL      0.053733
    148 N13         4.7790    2.1380    0.1910 n         1 MOL     -0.014289
    149 C50         4.1720    2.4720    1.4570 c3        1 MOL     -0.230666
    150 C51         5.0250    1.9050    2.6240 c         1 MOL      0.537298
    151 O21         5.2000    2.5840    3.6020 o         1 MOL     -0.549401
    152 C52         2.7960    1.8280    1.4600 c3        1 MOL      0.124273
    153 C53         1.8990    2.3580    0.3200 c3        1 MOL     -0.103528
    154 C54         0.4730    1.7850    0.4210 c         1 MOL      0.604177
    155 O22        -0.4470    2.3440   -0.1580 o         1 MOL     -0.686400
    156 O23         0.2440    0.6760    0.9580 o         1 MOL     -0.686400
    157 H67         4.5630    1.2320   -0.2130 hn        1 MOL      0.149505
    158 H68         4.1590    3.5380    1.6500 h1        1 MOL      0.145028
    159 H69         2.2630    2.0430    2.3830 hc        1 MOL     -0.007602
    160 H70         2.8940    0.7450    1.4550 hc        1 MOL     -0.007602
    161 H71         2.3080    1.9800   -0.6070 hc        1 MOL      0.051402
    162 H72         1.9540    3.4490    0.3090 hc        1 MOL      0.051402
    163 N14         5.8360    0.8060    2.3830 n         1 MOL     -0.129390
    164 C55         6.6560    0.1090    3.3690 c3        1 MOL     -0.166694
    165 H73         7.6750    0.0160    2.9930 h1        1 MOL      0.068047
    166 H74         6.6640    0.6740    4.3010 h1        1 MOL      0.068047
    167 H75         6.2440   -0.8840    3.5490 h1        1 MOL      0.068047
    168 H76         5.8450    0.4820    1.4280 hn        1 MOL      0.075495
    169 Ca1        -2.0160    0.1310   -0.3890 Ca        1 MOL      1.739754
    170 O24        -1.4170   -0.0610    2.7850 oh        1 MOL     -0.850471
    171 H77        -1.2050    0.1570    3.6920 ho        1 MOL      0.405069
    172 H78        -0.6370    0.1730    2.2820 ho        1 MOL      0.405069
    173 O25        -3.8700   -0.8970    1.6240 oh        1 MOL     -0.850471
    174 H79        -3.1870   -0.8140    2.2970 ho        1 MOL      0.405069
    175 H80        -4.6840   -0.9430    2.1300 ho        1 MOL      0.405069
@<TRIPOS>BOND
     1    1    2 1   
     2    1    4 1   
     3    1    5 1   
     4    1    6 1   
     5    2    3 2   
     6    2    7 1   
     7    7    8 1   
     8    7   15 1   
     9    8    9 1   
    10    8   11 1   
    11    8   16 1   
    12    9   10 2   
    13    9   19 1   
    14   11   12 1   
    15   11   17 1   
    16   11   18 1   
    17   12   13 1   
    18   12   14 1   
    19   19   20 1   
    20   19   24 1   
    21   20   21 1   
    22   20   23 1   
    23   20   25 1   
    24   21   22 2   
    25   21   29 1   
    26   23   26 1   
    27   23   27 1   
    28   23   28 1   
    29   29   30 1   
    30   29   37 1   
    31   30   31 1   
    32   30   33 1   
    33   30   38 1   
    34   31   32 2   
    35   31   41 1   
    36   33   34 1   
    37   33   39 1   
    38   33   40 1   
    39   34   35 1   
    40   34   36 1   
    41   41   42 1   
    42   41   45 1   
    43   42   43 1   
    44   42   46 1   
    45   42   47 1   
    46   43   44 2   
    47   43   48 1   
    48   48   49 1   
    49   48   56 1   
    50   49   50 1   
    51   49   52 1   
    52   49   57 1   
    53   50   51 2   
    54   50   62 1   
    55   52   53 1   
    56   52   58 1   
    57   52   59 1   
    58   53   54 1   
    59   53   55 2   
    60   54   60 1   
    61   54   61 1   
    62   62   63 1   
    63   62   66 1   
    64   63   64 1   
    65   63   67 1   
    66   63   68 1   
    67   64   65 2   
    68   64   69 1   
    69   69   70 1   
    70   69   76 1   
    71   70   71 1   
    72   70   73 1   
    73   70   77 1   
    74   71   72 2   
    75   71   83 1   
    76   73   74 1   
    77   73   75 1   
    78   73   78 1   
    79   74   80 1   
    80   74   81 1   
    81   74   82 1   
    82   75   79 1   
    83   83   84 1   
    84   83   91 1   
    85   84   85 1   
    86   84   87 1   
    87   84   92 1   
    88   85   86 2   
    89   85  102 1   
    90   87   88 1   
    91   87   89 1   
    92   87   93 1   
    93   88   90 1   
    94   88   94 1   
    95   88   95 1   
    96   89   96 1   
    97   89   97 1   
    98   89   98 1   
    99   90   99 1   
   100   90  100 1   
   101   90  101 1   
   102  102  103 1   
   103  102  110 1   
   104  103  104 1   
   105  103  106 1   
   106  103  111 1   
   107  104  105 2   
   108  104  114 1   
   109  106  107 1   
   110  106  112 1   
   111  106  113 1   
   112  107  108 1   
   113  107  109 1   
   114  114  115 1   
   115  114  125 1   
   116  115  116 1   
   117  115  118 1   
   118  115  126 1   
   119  116  117 2   
   120  116  134 1   
   121  118  119 1   
   122  118  127 1   
   123  118  128 1   
   124  119  120 ar  
   125  119  121 ar  
   126  120  122 ar  
   127  120  129 1   
   128  121  123 ar  
   129  121  130 1   
   130  122  124 ar  
   131  122  131 1   
   132  123  124 ar  
   133  123  132 1   
   134  124  133 1   
   135  134  135 1   
   136  134  140 1   
   137  135  136 1   
   138  135  138 1   
   139  135  141 1   
   140  136  137 2   
   141  136  148 1   
   142  138  139 1   
   143  138  142 1   
   144  138  143 1   
   145  139  140 1   
   146  139  144 1   
   147  139  145 1   
   148  140  146 1   
   149  140  147 1   
   150  148  149 1   
   151  148  157 1   
   152  149  150 1   
   153  149  152 1   
   154  149  158 1   
   155  150  151 2   
   156  150  163 1   
   157  152  153 1   
   158  152  159 1   
   159  152  160 1   
   160  153  154 1   
   161  153  161 1   
   162  153  162 1   
   163  154  155 1   
   164  154  156 1   
   165  163  164 1   
   166  163  168 1   
   167  164  165 1   
   168  164  166 1   
   169  164  167 1   
   170  170  171 1   
   171  170  172 1   
   172  173  174 1   
   173  173  175 1   
@<TRIPOS>SUBSTRUCTURE
     1 MOL         1 TEMP              0 ****  ****    0 ROOT
