@<TRIPOS>MOLECULE
MOL
  172   171     1     0     0
SMALL
resp


@<TRIPOS>ATOM
      1 C1          0.3220    4.4550    5.1800 c3        1 MOL     -0.459853
      2 C2         -0.2690    4.4220    3.7940 c         1 MOL      0.743204
      3 O1          0.4220    4.5590    2.7950 o         1 MOL     -0.546265
      4 H1          1.1650    5.1470    5.1990 hc        1 MOL      0.107442
      5 H2         -0.4350    4.7870    5.8910 hc        1 MOL      0.107442
      6 H3          0.6660    3.4580    5.4540 hc        1 MOL      0.107442
      7 N1         -1.5760    4.1980    3.7800 n         1 MOL     -0.621658
      8 C3         -2.2030    3.7950    2.4680 c3        1 MOL      0.124619
      9 C4         -2.3290    5.0010    1.4660 c         1 MOL      0.533412
     10 O2         -2.4690    6.1700    1.8610 o         1 MOL     -0.561132
     11 C5         -3.5730    3.2380    2.8100 c3        1 MOL     -0.187201
     12 C6         -4.1690    2.5320    1.5660 c         1 MOL      0.498093
     13 O3         -5.4460    2.4790    1.5180 o         1 MOL     -0.609530
     14 O4         -3.4320    1.9530    0.7340 o         1 MOL     -0.609530
     15 H4         -2.1270    4.0890    4.6190 hn        1 MOL      0.329037
     16 H5         -1.5310    3.1020    1.9590 h1        1 MOL      0.027855
     17 H6         -4.3090    3.9910    3.0920 hc        1 MOL      0.061491
     18 H7         -3.5020    2.5220    3.6240 hc        1 MOL      0.061491
     19 N2         -2.6110    4.6590    0.2050 n         1 MOL     -0.428938
     20 C7         -3.2290    5.6100   -0.7250 c3        1 MOL      0.187478
     21 C8         -4.2140    4.9770   -1.6680 c         1 MOL      0.631350
     22 O5         -4.7420    5.7180   -2.4810 o         1 MOL     -0.587713
     23 C9         -2.1190    6.2740   -1.5400 c3        1 MOL     -0.196544
     24 H8         -2.6170    3.6620    0.0540 hn        1 MOL      0.254901
     25 H9         -3.8120    6.3280   -0.1560 h1        1 MOL      0.041909
     26 H10        -2.5750    6.9070   -2.2880 hc        1 MOL      0.051396
     27 H11        -1.5510    6.9980   -0.9590 hc        1 MOL      0.051396
     28 H12        -1.4140    5.5960   -2.0280 hc        1 MOL      0.051396
     29 N3         -4.6290    3.6490   -1.6020 n         1 MOL     -0.665176
     30 C10        -5.3290    2.9470   -2.7120 c3        1 MOL      0.324917
     31 C11        -6.4510    2.0040   -2.3310 c         1 MOL      0.300959
     32 O6         -7.3080    1.5890   -3.1570 o         1 MOL     -0.570499
     33 C12        -4.2570    2.1550   -3.5860 c3        1 MOL     -0.285855
     34 C13        -3.4210    1.2040   -2.7610 c         1 MOL      0.767986
     35 O7         -3.9930    0.4520   -1.9620 o         1 MOL     -0.701344
     36 O8         -2.1950    1.2370   -2.7590 o         1 MOL     -0.701344
     37 H13        -4.0800    3.1280   -0.9290 hn        1 MOL      0.346541
     38 H14        -5.8770    3.5970   -3.4010 h1        1 MOL      0.051729
     39 H15        -3.5620    2.8520   -4.0680 hc        1 MOL      0.057482
     40 H16        -4.7810    1.5860   -4.3610 hc        1 MOL      0.057482
     41 N4         -6.6320    1.5800   -1.0940 n         1 MOL     -0.090324
     42 C14        -7.7500    0.6040   -0.7460 c3        1 MOL     -0.289614
     43 C15        -7.5440   -0.8670   -1.0000 c         1 MOL      0.619322
     44 O9         -8.5480   -1.6440   -0.7990 o         1 MOL     -0.623486
     45 H17        -5.9860    1.9120   -0.3840 hn        1 MOL      0.135902
     46 H18        -8.5940    0.8780   -1.3700 h1        1 MOL      0.131301
     47 H19        -7.9990    0.6910    0.3180 h1        1 MOL      0.131301
     48 N5         -6.2770   -1.2950   -1.3910 n         1 MOL     -0.358933
     49 C16        -5.9760   -2.6720   -1.8990 c3        1 MOL      0.108543
     50 C17        -5.8850   -3.7650   -0.8400 c         1 MOL      0.417944
     51 O10        -5.4020   -4.8840   -1.0880 o         1 MOL     -0.497610
     52 C18        -4.8170   -2.6690   -2.8880 c3        1 MOL     -0.383124
     53 C19        -3.4200   -2.6450   -2.2720 c         1 MOL      0.665336
     54 N6         -2.5050   -3.1080   -3.0350 n         1 MOL     -0.598738
     55 O11        -3.1170   -2.2330   -1.1330 o         1 MOL     -0.659660
     56 H20        -5.5110   -0.6340   -1.4110 hn        1 MOL      0.263116
     57 H21        -6.9190   -2.9970   -2.3520 h1        1 MOL      0.081834
     58 H22        -5.0040   -1.7340   -3.4250 hc        1 MOL      0.117870
     59 H23        -4.9470   -3.6080   -3.4290 hc        1 MOL      0.117870
     60 H24        -2.6830   -3.0070   -4.0210 hn        1 MOL      0.325362
     61 H25        -1.5440   -3.0900   -2.7290 hn        1 MOL      0.325362
     62 N7         -6.1810   -3.3570    0.4460 n         1 MOL     -0.275074
     63 C20        -6.0850   -4.2490    1.5750 c3        1 MOL     -0.271423
     64 C21        -4.6870   -4.4810    2.1640 c         1 MOL      0.511071
     65 O12        -4.6110   -5.1240    3.1860 o         1 MOL     -0.574195
     66 H26        -6.6050   -2.4560    0.5730 hn        1 MOL      0.273872
     67 H27        -6.6560   -5.1550    1.3860 h1        1 MOL      0.128798
     68 H28        -6.5720   -3.7850    2.4250 h1        1 MOL      0.128798
     69 N8         -3.6220   -3.9380    1.5900 n         1 MOL     -0.114661
     70 C22        -2.1880   -4.2840    1.8320 c3        1 MOL     -0.371458
     71 C23        -1.1500   -3.1060    1.7490 c         1 MOL      0.642180
     72 O13        -1.3300   -2.1770    0.9500 o         1 MOL     -0.481744
     73 C24        -1.6930   -5.2890    0.7280 c3        1 MOL      0.388774
     74 C25        -2.4350   -6.6640    0.7660 c3        1 MOL     -0.610196
     75 O14        -1.8570   -4.8700   -0.6120 oh        1 MOL     -0.496676
     76 H29        -3.8660   -3.3590    0.7950 hn        1 MOL      0.231531
     77 H30        -2.1030   -4.7050    2.8390 h1        1 MOL      0.155444
     78 H31        -0.6150   -5.4160    0.7910 h1        1 MOL      0.041493
     79 H32        -2.1640   -3.9590   -0.5880 ho        1 MOL      0.293280
     80 H33        -2.5040   -7.1340    1.7420 hc        1 MOL      0.160210
     81 H34        -3.4840   -6.3980    0.6440 hc        1 MOL      0.160210
     82 H35        -2.1670   -7.2540   -0.1090 hc        1 MOL      0.160210
     83 N9         -0.0690   -3.1740    2.5650 n         1 MOL     -0.592199
     84 C26         1.1120   -2.3310    2.3380 c3        1 MOL      0.029919
     85 C27         1.8770   -2.7710    1.0710 c         1 MOL      0.487002
     86 O15         2.3860   -3.8730    0.9610 o         1 MOL     -0.568418
     87 C28         1.8600   -2.2700    3.6480 c3        1 MOL      0.131368
     88 C29         0.9810   -1.8540    4.8020 c3        1 MOL      0.041072
     89 C30         2.9330   -1.1890    3.4840 c3        1 MOL     -0.313243
     90 C31         1.8440   -1.9880    6.0640 c3        1 MOL     -0.222854
     91 H36         0.0700   -3.9190    3.2330 hn        1 MOL      0.310661
     92 H37         0.6760   -1.3450    2.1370 h1        1 MOL      0.070514
     93 H38         2.3440   -3.2310    3.8440 hc        1 MOL     -0.006635
     94 H39         0.1630   -2.5580    4.9450 hc        1 MOL      0.011015
     95 H40         0.5070   -0.8860    4.6610 hc        1 MOL      0.011015
     96 H41         3.7470   -1.3350    4.1920 hc        1 MOL      0.078641
     97 H42         3.4420   -1.2290    2.5120 hc        1 MOL      0.078641
     98 H43         2.4520   -0.2200    3.6410 hc        1 MOL      0.078641
     99 H44         1.2630   -1.9700    6.9880 hc        1 MOL      0.045562
    100 H45         2.4980   -2.8590    6.0950 hc        1 MOL      0.045562
    101 H46         2.6700   -1.2900    6.1450 hc        1 MOL      0.045562
    102 N10         1.7190   -1.9240    0.0470 n         1 MOL     -0.155325
    103 C32         2.6290   -2.0450   -1.1200 c3        1 MOL     -0.007777
    104 C33         4.0560   -1.5850   -0.8020 c         1 MOL      0.390398
    105 O16         4.2270   -0.8840    0.2240 o         1 MOL     -0.259219
    106 C34         2.0330   -1.2450   -2.2610 c3        1 MOL     -0.270498
    107 C35         0.5630   -1.6580   -2.6710 c         1 MOL      0.712131
    108 O17        -0.4180   -1.0880   -2.1620 o         1 MOL     -0.689244
    109 O18         0.5080   -2.6370   -3.4740 o         1 MOL     -0.689244
    110 H47         1.1860   -1.0740    0.1850 hn        1 MOL      0.113325
    111 H48         2.7640   -3.0770   -1.4520 h1        1 MOL      0.086949
    112 H49         2.6520   -1.2260   -3.1590 hc        1 MOL      0.090201
    113 H50         1.9720   -0.1680   -2.0490 hc        1 MOL      0.090201
    114 N11         5.1440   -1.9730   -1.4980 n         1 MOL     -0.591341
    115 C36         6.5350   -1.4610   -1.2310 c3        1 MOL      0.393731
    116 C37         6.7100    0.0970   -1.0930 c         1 MOL      0.303684
    117 O19         7.2890    0.5820   -0.1080 o         1 MOL     -0.495030
    118 C38         7.5090   -2.1330   -2.2250 c3        1 MOL     -0.409235
    119 C39         8.9700   -1.7350   -2.0510 ca        1 MOL      0.269057
    120 C40         9.8520   -2.3400   -1.1460 ca        1 MOL     -0.282999
    121 C41         9.5520   -0.7260   -2.9120 ca        1 MOL     -0.282999
    122 C42        11.1250   -1.8710   -0.9820 ca        1 MOL     -0.035199
    123 C43        10.8760   -0.2620   -2.7500 ca        1 MOL     -0.035199
    124 C44        11.6650   -0.8420   -1.7160 ca        1 MOL     -0.155225
    125 H51         4.9600   -2.5030   -2.3330 hn        1 MOL      0.331422
    126 H52         6.8620   -1.8520   -0.2650 h1        1 MOL      0.055619
    127 H53         7.2130   -2.0500   -3.2670 hc        1 MOL      0.112784
    128 H54         7.4530   -3.1950   -1.9820 hc        1 MOL      0.112784
    129 H55         9.5510   -3.1510   -0.4980 ha        1 MOL      0.143774
    130 H56         8.9440   -0.1850   -3.6280 ha        1 MOL      0.143774
    131 H57        11.7270   -2.3800   -0.2480 ha        1 MOL      0.095173
    132 H58        11.2880    0.5460   -3.3450 ha        1 MOL      0.095173
    133 H59        12.6840   -0.5060   -1.6110 ha        1 MOL      0.103691
    134 N12         6.0610    0.9620   -1.9560 n         1 MOL     -0.060845
    135 C45         5.9960    2.3850   -1.6270 c3        1 MOL      0.042678
    136 C46         5.2420    2.8550   -0.3660 c         1 MOL      0.436269
    137 O20         5.1430    4.0600   -0.1490 o         1 MOL     -0.556575
    138 C47         5.4440    3.0550   -2.8910 c3        1 MOL     -0.102759
    139 C48         5.1690    1.9680   -3.9370 c3        1 MOL      0.250812
    140 C49         5.3480    0.6070   -3.2080 c3        1 MOL     -0.185100
    141 H60         6.9700    2.8010   -1.3870 h1        1 MOL      0.064780
    142 H61         4.5380    3.6240   -2.6710 hc        1 MOL      0.026549
    143 H62         6.1880    3.6860   -3.3730 hc        1 MOL      0.026549
    144 H63         4.2070    2.0300   -4.4410 hc        1 MOL     -0.045614
    145 H64         5.9370    2.0770   -4.7000 hc        1 MOL     -0.045614
    146 H65         4.3170    0.2930   -2.9940 h1        1 MOL      0.063249
    147 H66         5.8350   -0.0820   -3.8930 h1        1 MOL      0.063249
    148 N13         4.7020    1.9010    0.4020 n         1 MOL      0.027140
    149 C50         4.0320    2.1750    1.6430 c3        1 MOL     -0.053504
    150 C51         4.7900    1.5120    2.7800 c         1 MOL      0.368933
    151 O21         4.9050    2.1100    3.8440 o         1 MOL     -0.552507
    152 C52         2.5820    1.7340    1.6230 c3        1 MOL     -0.033911
    153 C53         1.7750    2.3330    0.5030 c3        1 MOL     -0.011889
    154 C54         0.4990    1.6260    0.1880 c         1 MOL      0.694036
    155 O22         0.3000    0.4640    0.5780 o         1 MOL     -0.766332
    156 O23        -0.4530    2.1620   -0.4340 o         1 MOL     -0.766332
    157 H67         4.8880    0.9290    0.2120 hn        1 MOL     -0.197311
    158 H68         3.9650    3.2350    1.8860 h1        1 MOL      0.099277
    159 H69         2.0860    2.0430    2.5460 hc        1 MOL      0.059562
    160 H70         2.6090    0.6520    1.4980 hc        1 MOL      0.059562
    161 H71         2.2830    2.3240   -0.4580 hc        1 MOL      0.041578
    162 H72         1.6570    3.4040    0.7120 hc        1 MOL      0.041578
    163 N14         5.5060    0.3950    2.6190 n         1 MOL     -0.019210
    164 C55         6.3570   -0.2330    3.6120 c3        1 MOL     -0.223249
    165 H73         6.8740    0.5360    4.1850 h1        1 MOL      0.081192
    166 H74         5.7470   -0.8380    4.2830 h1        1 MOL      0.081192
    167 H75         7.0890   -0.8700    3.1140 h1        1 MOL      0.081192
    168 H76         5.4590   -0.0770    1.7300 hn        1 MOL      0.122842
    169 Ca1        -2.0050    0.0540   -0.4400 Ca        1 MOL      1.744179
    170 O24        -3.5530   -0.5450    1.7940 oh        1 MOL     -1.006775
    171 H77        -4.4030   -0.2640    2.1120 ho        1 MOL      0.469040
    172 H78        -2.9220   -0.0980    2.3690 ho        1 MOL      0.469040
@<TRIPOS>BOND
     1    1    2 1   
     2    1    4 1   
     3    1    5 1   
     4    1    6 1   
     5    2    3 2   
     6    2    7 1   
     7    7    8 1   
     8    7   15 1   
     9    8    9 1   
    10    8   11 1   
    11    8   16 1   
    12    9   10 2   
    13    9   19 1   
    14   11   12 1   
    15   11   17 1   
    16   11   18 1   
    17   12   13 1   
    18   12   14 1   
    19   19   20 1   
    20   19   24 1   
    21   20   21 1   
    22   20   23 1   
    23   20   25 1   
    24   21   22 2   
    25   21   29 1   
    26   23   26 1   
    27   23   27 1   
    28   23   28 1   
    29   29   30 1   
    30   29   37 1   
    31   30   31 1   
    32   30   33 1   
    33   30   38 1   
    34   31   32 2   
    35   31   41 1   
    36   33   34 1   
    37   33   39 1   
    38   33   40 1   
    39   34   35 1   
    40   34   36 1   
    41   41   42 1   
    42   41   45 1   
    43   42   43 1   
    44   42   46 1   
    45   42   47 1   
    46   43   44 2   
    47   43   48 1   
    48   48   49 1   
    49   48   56 1   
    50   49   50 1   
    51   49   52 1   
    52   49   57 1   
    53   50   51 2   
    54   50   62 1   
    55   52   53 1   
    56   52   58 1   
    57   52   59 1   
    58   53   54 1   
    59   53   55 2   
    60   54   60 1   
    61   54   61 1   
    62   62   63 1   
    63   62   66 1   
    64   63   64 1   
    65   63   67 1   
    66   63   68 1   
    67   64   65 2   
    68   64   69 1   
    69   69   70 1   
    70   69   76 1   
    71   70   71 1   
    72   70   73 1   
    73   70   77 1   
    74   71   72 2   
    75   71   83 1   
    76   73   74 1   
    77   73   75 1   
    78   73   78 1   
    79   74   80 1   
    80   74   81 1   
    81   74   82 1   
    82   75   79 1   
    83   83   84 1   
    84   83   91 1   
    85   84   85 1   
    86   84   87 1   
    87   84   92 1   
    88   85   86 2   
    89   85  102 1   
    90   87   88 1   
    91   87   89 1   
    92   87   93 1   
    93   88   90 1   
    94   88   94 1   
    95   88   95 1   
    96   89   96 1   
    97   89   97 1   
    98   89   98 1   
    99   90   99 1   
   100   90  100 1   
   101   90  101 1   
   102  102  103 1   
   103  102  110 1   
   104  103  104 1   
   105  103  106 1   
   106  103  111 1   
   107  104  105 2   
   108  104  114 1   
   109  106  107 1   
   110  106  112 1   
   111  106  113 1   
   112  107  108 1   
   113  107  109 1   
   114  114  115 1   
   115  114  125 1   
   116  115  116 1   
   117  115  118 1   
   118  115  126 1   
   119  116  117 2   
   120  116  134 1   
   121  118  119 1   
   122  118  127 1   
   123  118  128 1   
   124  119  120 ar  
   125  119  121 ar  
   126  120  122 ar  
   127  120  129 1   
   128  121  123 ar  
   129  121  130 1   
   130  122  124 ar  
   131  122  131 1   
   132  123  124 ar  
   133  123  132 1   
   134  124  133 1   
   135  134  135 1   
   136  134  140 1   
   137  135  136 1   
   138  135  138 1   
   139  135  141 1   
   140  136  137 2   
   141  136  148 1   
   142  138  139 1   
   143  138  142 1   
   144  138  143 1   
   145  139  140 1   
   146  139  144 1   
   147  139  145 1   
   148  140  146 1   
   149  140  147 1   
   150  148  149 1   
   151  148  157 1   
   152  149  150 1   
   153  149  152 1   
   154  149  158 1   
   155  150  151 2   
   156  150  163 1   
   157  152  153 1   
   158  152  159 1   
   159  152  160 1   
   160  153  154 1   
   161  153  161 1   
   162  153  162 1   
   163  154  155 1   
   164  154  156 1   
   165  163  164 1   
   166  163  168 1   
   167  164  165 1   
   168  164  166 1   
   169  164  167 1   
   170  170  171 1   
   171  170  172 1   
@<TRIPOS>SUBSTRUCTURE
     1 MOL         1 TEMP              0 ****  ****    0 ROOT
