@<TRIPOS>MOLECULE
MOL
  172   171     1     0     0
SMALL
resp


@<TRIPOS>ATOM
      1 C1          0.3130    4.3240    5.2540 c3        1 MOL     -0.435956
      2 C2         -0.3120    4.1860    3.8640 c         1 MOL      0.721462
      3 O1          0.4660    4.1130    2.9050 o         1 MOL     -0.544860
      4 H1          0.5440    5.3730    5.4450 hc        1 MOL      0.106704
      5 H2         -0.3880    3.9640    6.0050 hc        1 MOL      0.106704
      6 H3          1.2300    3.7370    5.3010 hc        1 MOL      0.106704
      7 N1         -1.6500    4.0900    3.6900 n         1 MOL     -0.625892
      8 C3         -2.3080    3.6720    2.4420 c3        1 MOL     -0.013793
      9 C4         -2.7420    4.9090    1.6200 c         1 MOL      0.733596
     10 O2         -3.1980    5.8970    2.1970 o         1 MOL     -0.589199
     11 C5         -3.4950    2.7830    2.7810 c3        1 MOL     -0.022214
     12 C6         -4.2580    2.4610    1.5040 c         1 MOL      0.499209
     13 O3         -5.3850    2.8570    1.3590 o         1 MOL     -0.620493
     14 O4         -3.6530    1.9760    0.5130 o         1 MOL     -0.620493
     15 H4         -2.2150    4.3490    4.4830 hn        1 MOL      0.322665
     16 H5         -1.5880    3.0510    1.9110 h1        1 MOL      0.030293
     17 H6         -4.1580    3.3160    3.4600 hc        1 MOL     -0.002169
     18 H7         -3.1130    1.8940    3.2910 hc        1 MOL     -0.002169
     19 N2         -2.6230    4.7720    0.2700 n         1 MOL     -0.595894
     20 C7         -3.2390    5.7430   -0.7390 c3        1 MOL      0.239063
     21 C8         -3.8530    5.0010   -1.9830 c         1 MOL      0.538259
     22 O5         -3.8680    5.6270   -3.0340 o         1 MOL     -0.582595
     23 C9         -2.1240    6.7460   -1.0920 c3        1 MOL     -0.245272
     24 H8         -2.3130    3.8680   -0.0420 hn        1 MOL      0.375853
     25 H9         -4.0740    6.2660   -0.2620 h1        1 MOL      0.028387
     26 H10        -1.7830    7.1480   -0.1350 hc        1 MOL      0.057053
     27 H11        -1.2600    6.3720   -1.6400 hc        1 MOL      0.057053
     28 H12        -2.5070    7.6190   -1.6340 hc        1 MOL      0.057053
     29 N3         -4.3740    3.8270   -1.8300 n         1 MOL     -0.391443
     30 C10        -5.0210    2.9960   -2.8680 c3        1 MOL      0.029827
     31 C11        -6.2220    2.0780   -2.4540 c         1 MOL      0.507656
     32 O6         -6.9580    1.6620   -3.2950 o         1 MOL     -0.548643
     33 C12        -4.0270    2.1590   -3.6100 c3        1 MOL     -0.187057
     34 C13        -3.2910    1.1600   -2.7090 c         1 MOL      0.769654
     35 O7         -2.0440    1.0970   -2.6140 o         1 MOL     -0.738340
     36 O8         -3.9130    0.3650   -1.9930 o         1 MOL     -0.738340
     37 H13        -4.3280    3.4970   -0.8790 hn        1 MOL      0.211690
     38 H14        -5.4360    3.6420   -3.6420 h1        1 MOL      0.073205
     39 H15        -3.2930    2.8190   -4.0560 hc        1 MOL      0.063956
     40 H16        -4.4630    1.4840   -4.3450 hc        1 MOL      0.063956
     41 N4         -6.3910    1.7450   -1.1700 n         1 MOL     -0.398362
     42 C14        -7.5120    0.9560   -0.7240 c3        1 MOL     -0.013369
     43 C15        -7.4390   -0.5970   -0.9010 c         1 MOL      0.438084
     44 O9         -8.4420   -1.2400   -0.7280 o         1 MOL     -0.596916
     45 H17        -5.6880    2.0310   -0.4960 hn        1 MOL      0.289323
     46 H18        -8.4930    1.2630   -1.0900 h1        1 MOL      0.076820
     47 H19        -7.6710    1.0420    0.3580 h1        1 MOL      0.076820
     48 N5         -6.2980   -1.2020   -1.3580 n         1 MOL     -0.054237
     49 C16        -6.1710   -2.5980   -1.8510 c3        1 MOL     -0.026403
     50 C17        -6.1960   -3.6630   -0.7330 c         1 MOL      0.400359
     51 O10        -6.2990   -4.8290   -1.1400 o         1 MOL     -0.523267
     52 C18        -5.0220   -2.8400   -2.8260 c3        1 MOL     -0.146582
     53 C19        -3.6650   -2.7440   -2.2330 c         1 MOL      0.767977
     54 N6         -2.6160   -2.9690   -3.0120 n         1 MOL     -0.701583
     55 O11        -3.5530   -2.5650   -1.0450 o         1 MOL     -0.671918
     56 H20        -5.5420   -0.5370   -1.4050 hn        1 MOL      0.026718
     57 H21        -7.1200   -2.7820   -2.3760 h1        1 MOL      0.096293
     58 H22        -5.0750   -2.1520   -3.6580 hc        1 MOL      0.055513
     59 H23        -5.1230   -3.8380   -3.2760 hc        1 MOL      0.055513
     60 H24        -2.7620   -3.1240   -4.0080 hn        1 MOL      0.331596
     61 H25        -1.6980   -2.7840   -2.6360 hn        1 MOL      0.331596
     62 N7         -6.0320   -3.3830    0.5560 n         1 MOL     -0.148254
     63 C20        -5.9880   -4.3500    1.6610 c3        1 MOL     -0.298389
     64 C21        -4.5830   -4.8670    1.9290 c         1 MOL      0.504324
     65 O12        -4.4560   -5.8930    2.6370 o         1 MOL     -0.575610
     66 H26        -6.0000   -2.4050    0.8190 hn        1 MOL      0.197438
     67 H27        -6.6700   -5.1800    1.4960 h1        1 MOL      0.140581
     68 H28        -6.2260   -3.7690    2.5570 h1        1 MOL      0.140581
     69 N8         -3.5070   -4.3650    1.2860 n         1 MOL      0.002537
     70 C22        -2.0960   -4.6950    1.4890 c3        1 MOL     -0.457563
     71 C23        -1.2380   -3.4350    1.6630 c         1 MOL      0.608936
     72 O13        -1.6680   -2.3910    1.2450 o         1 MOL     -0.517421
     73 C24        -1.5900   -5.5680    0.3990 c3        1 MOL      0.624892
     74 C25        -2.1520   -6.9780    0.3730 c3        1 MOL     -0.424539
     75 O14        -1.8060   -5.0880   -0.8950 oh        1 MOL     -0.637861
     76 H29        -3.5960   -3.5800    0.6590 hn        1 MOL      0.077927
     77 H30        -1.9860   -5.3740    2.3350 h1        1 MOL      0.122771
     78 H31        -0.5070   -5.6360    0.5730 h1        1 MOL     -0.053190
     79 H32        -2.0980   -4.1700   -0.8660 ho        1 MOL      0.360112
     80 H33        -2.0620   -7.4310    1.3600 hc        1 MOL      0.099476
     81 H34        -3.1990   -7.0630    0.1010 hc        1 MOL      0.099476
     82 H35        -1.5910   -7.6280   -0.3070 hc        1 MOL      0.099476
     83 N9         -0.1500   -3.5050    2.4170 n         1 MOL     -0.413296
     84 C26         0.8930   -2.5100    2.4420 c3        1 MOL     -0.156610
     85 C27         1.6840   -2.8140    1.1730 c         1 MOL      0.490172
     86 O15         2.2490   -3.9330    1.0190 o         1 MOL     -0.591032
     87 C28         1.6620   -2.3900    3.7910 c3        1 MOL      0.063530
     88 C29         0.7900   -2.4570    5.0560 c3        1 MOL      0.348574
     89 C30         2.4570   -1.0920    3.8070 c3        1 MOL     -0.019531
     90 C31         1.5480   -2.2420    6.3100 c3        1 MOL     -0.515223
     91 H36         0.0840   -4.3930    2.8240 hn        1 MOL      0.289218
     92 H37         0.4350   -1.5190    2.3510 h1        1 MOL      0.136767
     93 H38         2.4350   -3.1260    4.0330 hc        1 MOL      0.003766
     94 H39         0.2960   -3.4330    5.0200 hc        1 MOL     -0.079652
     95 H40        -0.0870   -1.8220    4.9330 hc        1 MOL     -0.079652
     96 H41         3.2850   -1.0940    4.5200 hc        1 MOL     -0.012227
     97 H42         2.9940   -0.7920    2.9120 hc        1 MOL     -0.012227
     98 H43         1.8060   -0.3150    4.2180 hc        1 MOL     -0.012227
     99 H44         2.3410   -2.9890    6.3290 hc        1 MOL      0.118945
    100 H45         2.0390   -1.2650    6.3550 hc        1 MOL      0.118945
    101 H46         0.8210   -2.1150    7.1090 hc        1 MOL      0.118945
    102 N10         1.7870   -1.8090    0.3100 n         1 MOL     -0.130520
    103 C32         2.5490   -1.8440   -0.9400 c3        1 MOL      0.011301
    104 C33         4.0380   -1.3350   -0.7560 c         1 MOL      0.526535
    105 O16         4.3310   -0.4280    0.0170 o         1 MOL     -0.441983
    106 C34         1.8090   -0.9690   -1.9840 c3        1 MOL     -0.161383
    107 C35         0.3980   -1.4970   -2.4170 c         1 MOL      0.630574
    108 O17         0.2470   -1.8660   -3.6330 o         1 MOL     -0.639668
    109 O18        -0.5500   -1.4500   -1.5790 o         1 MOL     -0.639668
    110 H47         1.0930   -1.0910    0.4400 hn        1 MOL      0.095744
    111 H48         2.6010   -2.8620   -1.3360 h1        1 MOL      0.056223
    112 H49         2.5120   -0.8610   -2.8110 hc        1 MOL      0.049619
    113 H50         1.6700    0.0060   -1.5120 hc        1 MOL      0.049619
    114 N11         5.0200   -1.8620   -1.4750 n         1 MOL     -0.753473
    115 C36         6.4380   -1.3240   -1.2840 c3        1 MOL      0.758010
    116 C37         6.6320    0.2320   -1.2710 c         1 MOL      0.071248
    117 O19         7.3460    0.7230   -0.4050 o         1 MOL     -0.455739
    118 C38         7.4020   -2.0920   -2.1160 c3        1 MOL     -0.400578
    119 C39         8.8080   -2.0350   -1.7950 ca        1 MOL      0.248615
    120 C40         9.7090   -2.5700   -2.7400 ca        1 MOL     -0.195100
    121 C41         9.2740   -1.7670   -0.5290 ca        1 MOL     -0.195100
    122 C42        11.0540   -2.7890   -2.4800 ca        1 MOL     -0.087948
    123 C43        10.6720   -1.8740   -0.3140 ca        1 MOL     -0.087948
    124 C44        11.5680   -2.3170   -1.2840 ca        1 MOL     -0.178369
    125 H51         4.8000   -2.6380   -2.0850 hn        1 MOL      0.352148
    126 H52         6.6690   -1.7060   -0.2840 h1        1 MOL     -0.000620
    127 H53         7.2510   -1.7420   -3.1410 hc        1 MOL      0.077198
    128 H54         7.2000   -3.1540   -2.0050 hc        1 MOL      0.077198
    129 H55         9.3320   -2.8890   -3.6900 ha        1 MOL      0.109878
    130 H56         8.7590   -1.3940    0.3390 ha        1 MOL      0.109878
    131 H57        11.7040   -3.1220   -3.2790 ha        1 MOL      0.101974
    132 H58        11.0700   -1.5990    0.6520 ha        1 MOL      0.101974
    133 H59        12.6330   -2.1820   -1.1880 ha        1 MOL      0.118428
    134 N12         6.0840    1.1660   -2.0980 n         1 MOL      0.002478
    135 C45         6.2100    2.6120   -1.9260 c3        1 MOL      0.060814
    136 C46         5.5860    3.1980   -0.6340 c         1 MOL      0.285125
    137 O20         6.0280    4.2630   -0.1320 o         1 MOL     -0.519727
    138 C47         5.5710    3.1480   -3.2810 c3        1 MOL     -0.123353
    139 C48         5.5810    1.9360   -4.2740 c3        1 MOL     -0.027661
    140 C49         5.1840    0.8580   -3.1850 c3        1 MOL     -0.182628
    141 H60         7.2620    2.8590   -1.7710 h1        1 MOL      0.070687
    142 H61         4.5430    3.3570   -2.9900 hc        1 MOL      0.060723
    143 H62         6.1760    3.9680   -3.6630 hc        1 MOL      0.060723
    144 H63         4.8330    1.9450   -5.0720 hc        1 MOL      0.033081
    145 H64         6.5840    1.7440   -4.6570 hc        1 MOL      0.033081
    146 H65         4.1430    1.0660   -2.9330 h1        1 MOL      0.095488
    147 H66         5.4020   -0.1520   -3.5160 h1        1 MOL      0.095488
    148 N13         4.6390    2.5060   -0.0610 n         1 MOL     -0.048204
    149 C50         3.9400    2.8470    1.1700 c3        1 MOL     -0.001082
    150 C51         4.6650    2.3310    2.4300 c         1 MOL      0.396050
    151 O21         4.8020    3.0700    3.4050 o         1 MOL     -0.559188
    152 C52         2.5970    2.0150    1.1720 c3        1 MOL     -0.039056
    153 C53         1.5300    2.5800    0.1890 c3        1 MOL     -0.259933
    154 C54         0.2510    1.6710    0.2090 c         1 MOL      0.857826
    155 O22        -0.8370    2.2410   -0.1390 o         1 MOL     -0.777071
    156 O23         0.2520    0.5000    0.5850 o         1 MOL     -0.777071
    157 H67         4.3920    1.6080   -0.4360 hn        1 MOL      0.099122
    158 H68         3.8770    3.9270    1.3200 h1        1 MOL      0.107870
    159 H69         2.1320    1.9990    2.1560 hc        1 MOL      0.023894
    160 H70         2.7430    0.9420    1.0480 hc        1 MOL      0.023894
    161 H71         1.9000    2.5460   -0.8330 hc        1 MOL      0.085528
    162 H72         1.1530    3.5670    0.4700 hc        1 MOL      0.085528
    163 N14         5.3580    1.2020    2.3370 n         1 MOL      0.000505
    164 C55         6.4460    0.7640    3.2470 c3        1 MOL     -0.246772
    165 H73         6.7750    1.6100    3.8510 h1        1 MOL      0.091601
    166 H74         6.0770   -0.0270    3.9000 h1        1 MOL      0.091601
    167 H75         7.2840    0.3900    2.6580 h1        1 MOL      0.091601
    168 H76         5.2370    0.6560    1.4900 hn        1 MOL      0.091586
    169 Ca1        -2.0990   -0.0400   -0.1340 Ca        1 MOL      1.722469
    170 O24        -1.4460    0.1230    2.7560 oh        1 MOL     -0.817683
    171 H77        -1.5080    0.1690    3.7110 ho        1 MOL      0.431280
    172 H78        -0.6890    0.6530    2.5370 ho        1 MOL      0.431280
@<TRIPOS>BOND
     1    1    2 1   
     2    1    4 1   
     3    1    5 1   
     4    1    6 1   
     5    2    3 2   
     6    2    7 1   
     7    7    8 1   
     8    7   15 1   
     9    8    9 1   
    10    8   11 1   
    11    8   16 1   
    12    9   10 2   
    13    9   19 1   
    14   11   12 1   
    15   11   17 1   
    16   11   18 1   
    17   12   13 1   
    18   12   14 1   
    19   19   20 1   
    20   19   24 1   
    21   20   21 1   
    22   20   23 1   
    23   20   25 1   
    24   21   22 2   
    25   21   29 1   
    26   23   26 1   
    27   23   27 1   
    28   23   28 1   
    29   29   30 1   
    30   29   37 1   
    31   30   31 1   
    32   30   33 1   
    33   30   38 1   
    34   31   32 2   
    35   31   41 1   
    36   33   34 1   
    37   33   39 1   
    38   33   40 1   
    39   34   35 1   
    40   34   36 1   
    41   41   42 1   
    42   41   45 1   
    43   42   43 1   
    44   42   46 1   
    45   42   47 1   
    46   43   44 2   
    47   43   48 1   
    48   48   49 1   
    49   48   56 1   
    50   49   50 1   
    51   49   52 1   
    52   49   57 1   
    53   50   51 2   
    54   50   62 1   
    55   52   53 1   
    56   52   58 1   
    57   52   59 1   
    58   53   54 1   
    59   53   55 2   
    60   54   60 1   
    61   54   61 1   
    62   62   63 1   
    63   62   66 1   
    64   63   64 1   
    65   63   67 1   
    66   63   68 1   
    67   64   65 2   
    68   64   69 1   
    69   69   70 1   
    70   69   76 1   
    71   70   71 1   
    72   70   73 1   
    73   70   77 1   
    74   71   72 2   
    75   71   83 1   
    76   73   74 1   
    77   73   75 1   
    78   73   78 1   
    79   74   80 1   
    80   74   81 1   
    81   74   82 1   
    82   75   79 1   
    83   83   84 1   
    84   83   91 1   
    85   84   85 1   
    86   84   87 1   
    87   84   92 1   
    88   85   86 2   
    89   85  102 1   
    90   87   88 1   
    91   87   89 1   
    92   87   93 1   
    93   88   90 1   
    94   88   94 1   
    95   88   95 1   
    96   89   96 1   
    97   89   97 1   
    98   89   98 1   
    99   90   99 1   
   100   90  100 1   
   101   90  101 1   
   102  102  103 1   
   103  102  110 1   
   104  103  104 1   
   105  103  106 1   
   106  103  111 1   
   107  104  105 2   
   108  104  114 1   
   109  106  107 1   
   110  106  112 1   
   111  106  113 1   
   112  107  108 1   
   113  107  109 1   
   114  114  115 1   
   115  114  125 1   
   116  115  116 1   
   117  115  118 1   
   118  115  126 1   
   119  116  117 2   
   120  116  134 1   
   121  118  119 1   
   122  118  127 1   
   123  118  128 1   
   124  119  120 ar  
   125  119  121 ar  
   126  120  122 ar  
   127  120  129 1   
   128  121  123 ar  
   129  121  130 1   
   130  122  124 ar  
   131  122  131 1   
   132  123  124 ar  
   133  123  132 1   
   134  124  133 1   
   135  134  135 1   
   136  134  140 1   
   137  135  136 1   
   138  135  138 1   
   139  135  141 1   
   140  136  137 2   
   141  136  148 1   
   142  138  139 1   
   143  138  142 1   
   144  138  143 1   
   145  139  140 1   
   146  139  144 1   
   147  139  145 1   
   148  140  146 1   
   149  140  147 1   
   150  148  149 1   
   151  148  157 1   
   152  149  150 1   
   153  149  152 1   
   154  149  158 1   
   155  150  151 2   
   156  150  163 1   
   157  152  153 1   
   158  152  159 1   
   159  152  160 1   
   160  153  154 1   
   161  153  161 1   
   162  153  162 1   
   163  154  155 1   
   164  154  156 1   
   165  163  164 1   
   166  163  168 1   
   167  164  165 1   
   168  164  166 1   
   169  164  167 1   
   170  170  171 1   
   171  170  172 1   
@<TRIPOS>SUBSTRUCTURE
     1 MOL         1 TEMP              0 ****  ****    0 ROOT
