@<TRIPOS>MOLECULE
MOL
  189   185     1     0     0
SMALL
resp


@<TRIPOS>ATOM
      1 C1         -0.2180    0.1420    6.9210 c3        1 MOL     -0.292488
      2 C2         -0.4680    0.2050    5.3720 c         1 MOL      0.766063
      3 O1          0.4260    0.5830    4.6270 o         1 MOL     -0.600132
      4 H1         -1.0370   -0.3940    7.3990 hc        1 MOL      0.072509
      5 H2          0.7200   -0.3790    7.1170 hc        1 MOL      0.072509
      6 H3         -0.1630    1.1540    7.3220 hc        1 MOL      0.072509
      7 N1         -1.7270   -0.1580    4.9180 n         1 MOL     -0.609590
      8 C3         -2.0670    0.3710    3.5680 c3        1 MOL      0.041815
      9 C4         -2.0550    1.9040    3.6330 c         1 MOL      0.531078
     10 O2         -2.4440    2.4980    4.6670 o         1 MOL     -0.570589
     11 C5         -3.4930   -0.1330    3.1060 c3        1 MOL     -0.121220
     12 C6         -4.0220    0.5960    1.8760 c         1 MOL      0.703955
     13 O3         -5.1720    1.1150    1.9710 o         1 MOL     -0.657456
     14 O4         -3.3380    0.7250    0.8580 o         1 MOL     -0.657456
     15 H4         -2.5030   -0.4030    5.5220 hn        1 MOL      0.349090
     16 H5         -1.2730    0.1150    2.8720 h1        1 MOL      0.016076
     17 H6         -4.1010   -0.0030    3.9970 hc        1 MOL      0.036502
     18 H7         -3.5570   -1.1990    2.8540 hc        1 MOL      0.036502
     19 N2         -1.6050    2.6010    2.5860 n         1 MOL     -0.296428
     20 C7         -1.7630    4.1040    2.4970 c3        1 MOL      0.062121
     21 C8         -2.8750    4.5770    1.5530 c         1 MOL      0.542474
     22 O5         -3.2370    5.7480    1.7290 o         1 MOL     -0.585081
     23 C9         -0.3750    4.6350    2.2820 c3        1 MOL     -0.174634
     24 C10         0.2010    4.4870    0.9030 c3        1 MOL      0.046024
     25 C11         1.7050    4.7580    0.8960 c3        1 MOL      0.135128
     26 C12         2.3960    4.7560   -0.4250 c3        1 MOL      0.079477
     27 N3          2.0820    5.9980   -1.2360 n4        1 MOL     -0.189829
     28 H8         -1.1770    2.2110    1.7570 hn        1 MOL      0.205623
     29 H9         -1.9490    4.5270    3.4850 h1        1 MOL      0.098582
     30 H10         0.2760    4.1050    2.9760 hc        1 MOL      0.069583
     31 H11        -0.4200    5.6770    2.6000 hc        1 MOL      0.069583
     32 H12        -0.2550    5.2150    0.2290 hc        1 MOL     -0.042783
     33 H13         0.0130    3.4740    0.5620 hc        1 MOL     -0.042783
     34 H14         2.2370    4.0820    1.5550 hc        1 MOL     -0.015730
     35 H15         1.7590    5.7550    1.3490 hc        1 MOL     -0.015730
     36 H16         2.0850    3.8340   -0.9150 hx        1 MOL     -0.003776
     37 H17         3.4620    4.6160   -0.2720 hx        1 MOL     -0.003776
     38 H18         1.1170    6.0240   -1.5210 hn        1 MOL      0.269049
     39 H19         2.2760    6.8500   -0.7380 hn        1 MOL      0.269049
     40 H20         2.6220    6.0020   -2.0950 hn        1 MOL      0.269049
     41 N4         -3.5000    3.8440    0.6140 n         1 MOL     -0.442304
     42 C13        -4.2700    4.4380   -0.4790 c3        1 MOL      0.115424
     43 C14        -5.5970    3.7570   -0.8160 c         1 MOL      0.392391
     44 O6         -6.1920    4.0400   -1.8460 o         1 MOL     -0.514302
     45 C15        -3.3490    4.6690   -1.6510 c3        1 MOL     -0.329435
     46 C16        -2.6560    3.4100   -2.1840 c         1 MOL      0.929470
     47 O7         -1.8260    3.5820   -3.1030 o         1 MOL     -0.764428
     48 O8         -2.8310    2.2710   -1.7350 o         1 MOL     -0.764428
     49 H21        -3.3040    2.8560    0.5500 hn        1 MOL      0.261826
     50 H22        -4.5280    5.4680   -0.2470 h1        1 MOL      0.104964
     51 H23        -2.5400    5.3210   -1.3300 hc        1 MOL      0.074175
     52 H24        -3.9360    5.1120   -2.4530 hc        1 MOL      0.074175
     53 N5         -6.0980    2.8080   -0.0480 n         1 MOL     -0.212520
     54 C17        -7.5190    2.3080   -0.0310 c3        1 MOL     -0.234275
     55 C18        -7.8930    1.2080   -1.0050 c         1 MOL      0.502614
     56 O9         -9.0570    0.9310   -1.2070 o         1 MOL     -0.557625
     57 H25        -5.5900    2.3460    0.6810 hn        1 MOL      0.209906
     58 H26        -8.2060    3.1440   -0.1830 h1        1 MOL      0.133154
     59 H27        -7.7530    1.9180    0.9590 h1        1 MOL      0.133154
     60 N6         -6.9530    0.4770   -1.5830 n         1 MOL     -0.225320
     61 C19        -7.1610   -0.6900   -2.4870 c3        1 MOL      0.018650
     62 C20        -7.3040   -2.0230   -1.6870 c         1 MOL      0.492266
     63 O10        -7.8440   -2.9500   -2.2620 o         1 MOL     -0.541412
     64 C21        -5.9200   -0.7350   -3.4610 c3        1 MOL     -0.249358
     65 C22        -4.4860   -0.6290   -2.7410 c         1 MOL      0.643029
     66 O11        -4.3720   -1.0260   -1.5520 o         1 MOL     -0.631471
     67 O12        -3.5470   -0.1860   -3.3980 o         1 MOL     -0.631471
     68 H28        -6.0270    0.7100   -1.2740 hn        1 MOL      0.193556
     69 H29        -8.0710   -0.5520   -3.0610 h1        1 MOL      0.100925
     70 H30        -5.9980   -0.0010   -4.2630 hc        1 MOL      0.071408
     71 H31        -5.9970   -1.7440   -3.8810 hc        1 MOL      0.071408
     72 N7         -6.6590   -2.0640   -0.5280 n         1 MOL     -0.375069
     73 C23        -6.6630   -3.2740    0.3710 c3        1 MOL     -0.022989
     74 C24        -5.4650   -4.1490    0.3030 c         1 MOL      0.499373
     75 O13        -5.5190   -5.3210    0.7040 o         1 MOL     -0.558768
     76 H32        -5.9310   -1.3700   -0.4150 hn        1 MOL      0.254279
     77 H33        -7.5320   -3.8830    0.0820 h1        1 MOL      0.082524
     78 H34        -6.8110   -2.8830    1.3860 h1        1 MOL      0.082524
     79 N8         -4.2830   -3.6430   -0.2060 n         1 MOL     -0.235710
     80 C25        -3.0200   -4.4030   -0.2430 c3        1 MOL     -0.069068
     81 C26        -1.7850   -3.5430    0.1110 c         1 MOL      0.698570
     82 O14        -1.8210   -2.3420    0.2200 o         1 MOL     -0.679157
     83 C27        -2.8770   -4.9700   -1.7350 c3        1 MOL      0.205330
     84 C28        -3.8900   -6.0460   -2.0980 c3        1 MOL     -0.590349
     85 O15        -2.9340   -3.8840   -2.6510 oh        1 MOL     -0.564718
     86 H35        -4.2060   -2.6500   -0.3000 hn        1 MOL      0.214313
     87 H36        -2.9630   -5.1960    0.5020 h1        1 MOL      0.087184
     88 H37        -1.9190   -5.4390   -1.9460 h1        1 MOL      0.054457
     89 H38        -3.2410   -4.2490   -3.4800 ho        1 MOL      0.416446
     90 H39        -4.8770   -5.5980   -2.2610 hc        1 MOL      0.175177
     91 H40        -3.6030   -6.5090   -3.0380 hc        1 MOL      0.175177
     92 H41        -4.0270   -6.7130   -1.2530 hc        1 MOL      0.175177
     93 N9         -0.6190   -4.1790    0.1960 n         1 MOL     -0.570929
     94 C29         0.6490   -3.5610    0.6470 c3        1 MOL      0.048237
     95 C30         1.8040   -3.8050   -0.3400 c         1 MOL      0.364245
     96 O16         2.1670   -4.9600   -0.5890 o         1 MOL     -0.528060
     97 C31         1.0110   -4.1560    2.0220 c3        1 MOL      0.068967
     98 C32         0.0190   -3.4050    3.0130 c3        1 MOL      0.126139
     99 C33         2.5050   -4.1300    2.3190 c3        1 MOL     -0.095201
    100 C34         0.1620   -3.6930    4.5180 c3        1 MOL     -0.234541
    101 H42        -0.5520   -5.1830    0.0720 hn        1 MOL      0.292999
    102 H43         0.5340   -2.4910    0.8140 h1        1 MOL      0.162463
    103 H44         0.7080   -5.2040    2.0440 hc        1 MOL      0.012005
    104 H45        -0.9820   -3.6530    2.6730 hc        1 MOL      0.008527
    105 H46         0.2290   -2.3370    2.9230 hc        1 MOL      0.008527
    106 H47         3.1070   -4.6080    1.5400 hc        1 MOL      0.009525
    107 H48         2.8820   -3.1110    2.4270 hc        1 MOL      0.009525
    108 H49         2.6900   -4.6540    3.2530 hc        1 MOL      0.009525
    109 H50         1.2170   -3.6050    4.7520 hc        1 MOL      0.040356
    110 H51        -0.4830   -2.9940    5.0530 hc        1 MOL      0.040356
    111 H52        -0.0700   -4.7500    4.6670 hc        1 MOL      0.040356
    112 N10         2.3920   -2.7770   -0.9130 n         1 MOL     -0.068084
    113 C35         3.5730   -2.6610   -1.7720 c3        1 MOL     -0.041165
    114 C36         4.8890   -2.4690   -0.9730 c         1 MOL      0.268268
    115 O17         4.8940   -2.3650    0.2270 o         1 MOL     -0.206833
    116 C37         3.3570   -1.5140   -2.8660 c3        1 MOL      0.270340
    117 C38         2.1210   -1.7430   -3.6580 c3        1 MOL     -0.467899
    118 O18         3.4020   -0.2730   -2.2560 oh        1 MOL     -0.558925
    119 H53         1.8350   -1.9380   -0.7670 hn        1 MOL      0.145339
    120 H54         3.6810   -3.6230   -2.2630 h1        1 MOL      0.056151
    121 H55         4.1470   -1.5590   -3.6020 h1        1 MOL      0.033122
    122 H56         2.4830   -0.1510   -2.0110 ho        1 MOL      0.322491
    123 H57         1.2890   -1.7770   -2.9450 hc        1 MOL      0.139148
    124 H58         1.9640   -0.9010   -4.3380 hc        1 MOL      0.139148
    125 H59         2.1280   -2.7110   -4.1500 hc        1 MOL      0.139148
    126 N11         6.0840   -2.6480   -1.5640 n         1 MOL     -0.198970
    127 C39         7.3950   -2.4520   -0.9930 c3        1 MOL     -0.282132
    128 C40         7.4780   -1.0450   -0.2820 c         1 MOL      0.347278
    129 O19         8.0520   -1.0010    0.8280 o         1 MOL     -0.462040
    130 C41         8.4800   -2.5140   -2.1100 c3        1 MOL      0.386487
    131 C42         8.5370   -3.8410   -2.7620 c3        1 MOL     -0.316279
    132 O20         8.1240   -1.4260   -2.9870 oh        1 MOL     -0.634502
    133 H60         6.0210   -2.7080   -2.5670 hn        1 MOL      0.210851
    134 H61         7.6070   -3.2950   -0.3350 h1        1 MOL      0.179353
    135 H62         9.5010   -2.3140   -1.7820 h1        1 MOL      0.030220
    136 H63         8.9270   -1.2390   -3.4750 ho        1 MOL      0.397514
    137 H64         8.8390   -4.5700   -2.0040 hc        1 MOL      0.090693
    138 H65         7.5530   -4.2430   -3.0120 hc        1 MOL      0.090693
    139 H66         9.1620   -3.8450   -3.6450 hc        1 MOL      0.090693
    140 N12         6.9350    0.0310   -0.8610 n         1 MOL     -0.069630
    141 C43         6.7650    1.3640   -0.2820 c3        1 MOL     -0.479705
    142 C44         5.9020    1.5030    0.9570 c         1 MOL      0.666312
    143 O21         6.1870    2.4150    1.8020 o         1 MOL     -0.551854
    144 C45         6.4010    2.3180   -1.4600 c3        1 MOL      0.091304
    145 C46         6.1650    3.7040   -0.9770 c3        1 MOL      0.095267
    146 C47         6.0060    4.7160   -2.1240 c3        1 MOL     -0.022687
    147 C48         7.0840    4.8870   -3.2320 c3        1 MOL      0.004084
    148 N13         6.4820    5.5140   -4.4220 n4        1 MOL     -0.193336
    149 H67         6.8250   -0.0880   -1.8530 hn        1 MOL      0.206059
    150 H68         7.7700    1.6120    0.0370 h1        1 MOL      0.180633
    151 H69         5.5330    1.9260   -1.9990 hc        1 MOL     -0.005292
    152 H70         7.2200    2.2870   -2.1870 hc        1 MOL     -0.005292
    153 H71         7.0600    3.9310   -0.3920 hc        1 MOL      0.015582
    154 H72         5.3520    3.6430   -0.2640 hc        1 MOL      0.015582
    155 H73         5.8050    5.6900   -1.6640 hc        1 MOL     -0.022467
    156 H74         5.0650    4.4280   -2.5980 hc        1 MOL     -0.022467
    157 H75         7.3500    3.8340   -3.3850 hx        1 MOL      0.100043
    158 H76         7.9330    5.4930   -2.9340 hx        1 MOL      0.100043
    159 H77         5.6490    5.0510   -4.7500 hn        1 MOL      0.252649
    160 H78         6.2250    6.4630   -4.1820 hn        1 MOL      0.252649
    161 H79         7.1210    5.5610   -5.2040 hn        1 MOL      0.252649
    162 N14         4.8760    0.6800    1.0370 n         1 MOL     -0.328674
    163 C49         4.0060    0.4470    2.2110 c3        1 MOL     -0.045408
    164 C50         4.6160   -0.4530    3.2520 c         1 MOL      0.488378
    165 O22         4.6980   -0.0640    4.4010 o         1 MOL     -0.537521
    166 C51         2.7160   -0.1720    1.6550 c3        1 MOL      0.132366
    167 C52         2.0730    0.9330    0.8640 c3        1 MOL     -0.129778
    168 C53         0.8140    0.4980    0.2300 c         1 MOL      0.573566
    169 O23         0.7950   -0.4020   -0.6650 o         1 MOL     -0.633007
    170 O24        -0.2920    0.9440    0.6410 o         1 MOL     -0.633007
    171 H80         4.7050    0.0570    0.2580 hn        1 MOL      0.177872
    172 H81         3.8530    1.4100    2.6930 h1        1 MOL      0.087453
    173 H82         2.1540   -0.4620    2.5430 hc        1 MOL      0.013060
    174 H83         2.9310   -0.9670    0.9410 hc        1 MOL      0.013060
    175 H84         2.7310    1.2980    0.0790 hc        1 MOL      0.072048
    176 H85         1.8160    1.7400    1.5470 hc        1 MOL      0.072048
    177 N15         5.1490   -1.6180    2.8670 n         1 MOL     -0.065412
    178 C54         5.8440   -2.6360    3.7650 c3        1 MOL     -0.482911
    179 H86         5.1300   -3.0280    4.4900 h1        1 MOL      0.168918
    180 H87         6.2300   -3.4540    3.1570 h1        1 MOL      0.168918
    181 H88         6.6680   -2.1540    4.2920 h1        1 MOL      0.168918
    182 H89         5.1060   -1.7960    1.8730 hn        1 MOL      0.059777
    183 Ca1        -1.9100    0.0400   -1.1570 Ca        1 MOL      1.662350
    184 O25        -1.0960   -1.9480   -2.8200 oh        1 MOL     -0.827695
    185 H90        -1.9050   -2.4530   -2.9330 ho        1 MOL      0.373851
    186 H91        -0.6200   -2.0850   -3.6350 ho        1 MOL      0.373851
    187 O26        -0.3950    1.3480   -2.9570 oh        1 MOL     -0.827695
    188 H92         0.5170    1.6230   -2.8930 ho        1 MOL      0.373851
    189 H93        -0.8920    2.1710   -3.0540 ho        1 MOL      0.373851
@<TRIPOS>BOND
     1    1    2 1   
     2    1    4 1   
     3    1    5 1   
     4    1    6 1   
     5    2    3 2   
     6    2    7 1   
     7    7    8 1   
     8    7   15 1   
     9    8    9 1   
    10    8   11 1   
    11    8   16 1   
    12    9   10 2   
    13    9   19 1   
    14   11   12 1   
    15   11   17 1   
    16   11   18 1   
    17   12   13 1   
    18   12   14 1   
    19   19   20 1   
    20   19   28 1   
    21   20   21 1   
    22   20   23 1   
    23   20   29 1   
    24   21   22 2   
    25   21   41 1   
    26   23   24 1   
    27   23   30 1   
    28   23   31 1   
    29   24   25 1   
    30   24   32 1   
    31   24   33 1   
    32   25   26 1   
    33   25   34 1   
    34   25   35 1   
    35   26   27 1   
    36   26   36 1   
    37   26   37 1   
    38   27   38 1   
    39   27   39 1   
    40   27   40 1   
    41   41   42 1   
    42   41   49 1   
    43   42   43 1   
    44   42   45 1   
    45   42   50 1   
    46   43   44 2   
    47   43   53 1   
    48   45   46 1   
    49   45   51 1   
    50   45   52 1   
    51   46   47 1   
    52   46   48 1   
    53   53   54 1   
    54   53   57 1   
    55   54   55 1   
    56   54   58 1   
    57   54   59 1   
    58   55   56 2   
    59   55   60 1   
    60   60   61 1   
    61   60   68 1   
    62   61   62 1   
    63   61   64 1   
    64   61   69 1   
    65   62   63 2   
    66   62   72 1   
    67   64   65 1   
    68   64   70 1   
    69   64   71 1   
    70   65   66 1   
    71   65   67 1   
    72   72   73 1   
    73   72   76 1   
    74   73   74 1   
    75   73   77 1   
    76   73   78 1   
    77   74   75 2   
    78   74   79 1   
    79   79   80 1   
    80   79   86 1   
    81   80   81 1   
    82   80   83 1   
    83   80   87 1   
    84   81   82 2   
    85   81   93 1   
    86   83   84 1   
    87   83   85 1   
    88   83   88 1   
    89   84   90 1   
    90   84   91 1   
    91   84   92 1   
    92   85   89 1   
    93   93   94 1   
    94   93  101 1   
    95   94   95 1   
    96   94   97 1   
    97   94  102 1   
    98   95   96 2   
    99   95  112 1   
   100   97   98 1   
   101   97   99 1   
   102   97  103 1   
   103   98  100 1   
   104   98  104 1   
   105   98  105 1   
   106   99  106 1   
   107   99  107 1   
   108   99  108 1   
   109  100  109 1   
   110  100  110 1   
   111  100  111 1   
   112  112  113 1   
   113  112  119 1   
   114  113  114 1   
   115  113  116 1   
   116  113  120 1   
   117  114  115 2   
   118  114  126 1   
   119  116  117 1   
   120  116  118 1   
   121  116  121 1   
   122  117  123 1   
   123  117  124 1   
   124  117  125 1   
   125  118  122 1   
   126  126  127 1   
   127  126  133 1   
   128  127  128 1   
   129  127  130 1   
   130  127  134 1   
   131  128  129 2   
   132  128  140 1   
   133  130  131 1   
   134  130  132 1   
   135  130  135 1   
   136  131  137 1   
   137  131  138 1   
   138  131  139 1   
   139  132  136 1   
   140  140  141 1   
   141  140  149 1   
   142  141  142 1   
   143  141  144 1   
   144  141  150 1   
   145  142  143 2   
   146  142  162 1   
   147  144  145 1   
   148  144  151 1   
   149  144  152 1   
   150  145  146 1   
   151  145  153 1   
   152  145  154 1   
   153  146  147 1   
   154  146  155 1   
   155  146  156 1   
   156  147  148 1   
   157  147  157 1   
   158  147  158 1   
   159  148  159 1   
   160  148  160 1   
   161  148  161 1   
   162  162  163 1   
   163  162  171 1   
   164  163  164 1   
   165  163  166 1   
   166  163  172 1   
   167  164  165 2   
   168  164  177 1   
   169  166  167 1   
   170  166  173 1   
   171  166  174 1   
   172  167  168 1   
   173  167  175 1   
   174  167  176 1   
   175  168  169 1   
   176  168  170 1   
   177  177  178 1   
   178  177  182 1   
   179  178  179 1   
   180  178  180 1   
   181  178  181 1   
   182  184  185 1   
   183  184  186 1   
   184  187  188 1   
   185  187  189 1   
@<TRIPOS>SUBSTRUCTURE
     1 MOL         1 TEMP              0 ****  ****    0 ROOT
