@<TRIPOS>MOLECULE
MOL
  189   185     1     0     0
SMALL
resp


@<TRIPOS>ATOM
      1 C1         -0.3640    4.1410    6.1140 c3        1 MOL     -0.396446
      2 C2         -1.0080    3.4650    4.8790 c         1 MOL      0.714620
      3 O1         -1.0880    2.2480    4.8530 o         1 MOL     -0.609870
      4 H1         -0.3210    5.2190    5.9570 hc        1 MOL      0.099468
      5 H2         -0.9620    3.9260    7.0000 hc        1 MOL      0.099468
      6 H3          0.6460    3.7540    6.2550 hc        1 MOL      0.099468
      7 N1         -1.3850    4.1850    3.8310 n         1 MOL     -0.526055
      8 C3         -1.9810    3.6960    2.5730 c3        1 MOL      0.057879
      9 C4         -1.8690    4.7960    1.4590 c         1 MOL      0.593259
     10 O2         -1.8270    6.0210    1.7450 o         1 MOL     -0.607891
     11 C5         -3.5090    3.4880    2.7830 c3        1 MOL     -0.353072
     12 C6         -4.1630    2.9560    1.5960 c         1 MOL      0.799178
     13 O3         -5.4070    2.9460    1.5970 o         1 MOL     -0.712987
     14 O4         -3.5320    2.3180    0.7160 o         1 MOL     -0.712987
     15 H4         -1.1610    5.1650    3.7600 hn        1 MOL      0.279480
     16 H5         -1.4940    2.8050    2.1930 h1        1 MOL      0.059165
     17 H6         -3.9810    4.4130    3.1190 hc        1 MOL      0.105759
     18 H7         -3.6310    2.7820    3.6000 hc        1 MOL      0.105759
     19 N2         -1.8340    4.3740    0.1920 n         1 MOL     -0.418019
     20 C7         -1.7630    5.1230   -1.0470 c3        1 MOL     -0.050244
     21 C8         -2.9640    4.9400   -1.9920 c         1 MOL      0.624668
     22 O5         -3.4560    5.9280   -2.5670 o         1 MOL     -0.597922
     23 C9         -0.3090    4.9450   -1.7370 c3        1 MOL      0.033564
     24 C10         0.9170    5.3400   -0.9130 c3        1 MOL      0.097975
     25 C11        -0.3600    5.7510   -3.0210 c3        1 MOL     -0.221771
     26 C12         2.1880    4.5430   -1.2760 c3        1 MOL     -0.321023
     27 H8         -1.7660    3.3690    0.1010 hn        1 MOL      0.440633
     28 H9         -1.7870    6.1860   -0.8160 h1        1 MOL      0.075677
     29 H10        -0.2270    3.8790   -1.9290 hc        1 MOL      0.052237
     30 H11         0.6750    5.1390    0.1270 hc        1 MOL     -0.020399
     31 H12         1.1320    6.4110   -0.8970 hc        1 MOL     -0.020399
     32 H13         0.5980    5.9730   -3.4910 hc        1 MOL      0.048156
     33 H14        -0.9340    5.3450   -3.8600 hc        1 MOL      0.048156
     34 H15        -0.7170    6.7560   -2.7840 hc        1 MOL      0.048156
     35 H16         2.8880    4.7270   -0.4680 hc        1 MOL      0.100356
     36 H17         1.9540    3.4760   -1.3560 hc        1 MOL      0.100356
     37 H18         2.5810    4.9130   -2.2200 hc        1 MOL      0.100356
     38 N3         -3.5070    3.6730   -2.0210 n         1 MOL     -0.421911
     39 C13        -4.5150    3.2620   -3.0690 c3        1 MOL      0.058376
     40 C14        -5.8210    2.6780   -2.5680 c         1 MOL      0.321524
     41 O6         -6.7550    2.5770   -3.3590 o         1 MOL     -0.552724
     42 C15        -3.7840    2.2670   -4.0030 c3        1 MOL     -0.245154
     43 C16        -2.7980    1.3820   -3.2880 c         1 MOL      0.778464
     44 O7         -3.0420    0.9540   -2.1620 o         1 MOL     -0.731148
     45 O8         -1.8050    0.9010   -3.9200 o         1 MOL     -0.731148
     46 H19        -3.1570    2.8860   -1.4960 hn        1 MOL      0.194161
     47 H20        -4.7460    4.1660   -3.6260 h1        1 MOL      0.102575
     48 H21        -3.2230    2.8410   -4.7420 hc        1 MOL      0.064239
     49 H22        -4.4790    1.6230   -4.5350 hc        1 MOL      0.064239
     50 N4         -6.0220    2.4340   -1.2710 n         1 MOL      0.038763
     51 C17        -7.2830    1.9750   -0.7530 c3        1 MOL     -0.199351
     52 C18        -7.7170    0.5800   -1.2270 c         1 MOL      0.545972
     53 O9         -8.8720    0.2100   -1.1280 o         1 MOL     -0.613161
     54 H23        -5.3570    2.6070   -0.5370 hn        1 MOL      0.065694
     55 H24        -8.1040    2.6370   -1.0350 h1        1 MOL      0.086967
     56 H25        -7.2130    1.9030    0.3280 h1        1 MOL      0.086967
     57 N5         -6.7540   -0.2780   -1.6010 n         1 MOL     -0.247109
     58 C19        -6.9880   -1.6480   -2.0630 c3        1 MOL     -0.101150
     59 C20        -7.1740   -2.7090   -0.9340 c         1 MOL      0.420090
     60 O10        -7.5040   -3.8600   -1.2380 o         1 MOL     -0.521969
     61 C21        -5.7730   -2.0620   -2.9620 c3        1 MOL     -0.187559
     62 C22        -4.4140   -1.9620   -2.3200 c         1 MOL      0.771663
     63 O11        -4.2610   -1.4840   -1.1290 o         1 MOL     -0.680270
     64 O12        -3.4400   -2.3010   -3.0780 o         1 MOL     -0.680270
     65 H26        -5.8200    0.0830   -1.5240 hn        1 MOL      0.211096
     66 H27        -7.8680   -1.5490   -2.7040 h1        1 MOL      0.124449
     67 H28        -5.6280   -1.4300   -3.8470 hc        1 MOL      0.068274
     68 H29        -5.9040   -3.0370   -3.4410 hc        1 MOL      0.068274
     69 N6         -6.8740   -2.3190    0.3310 n         1 MOL     -0.142994
     70 C23        -7.0370   -3.2730    1.5390 c3        1 MOL     -0.297443
     71 C24        -5.8410   -4.1070    1.8450 c         1 MOL      0.650414
     72 O13        -5.9290   -4.9330    2.7670 o         1 MOL     -0.597580
     73 H30        -6.7210   -1.3470    0.5280 hn        1 MOL      0.189930
     74 H31        -7.8620   -3.9100    1.2230 h1        1 MOL      0.123486
     75 H32        -7.2360   -2.7120    2.4460 h1        1 MOL      0.123486
     76 N7         -4.6610   -3.9590    1.1600 n         1 MOL     -0.410278
     77 C25        -3.4300   -4.6550    1.4500 c3        1 MOL      0.177581
     78 C26        -2.2770   -3.6550    1.6200 c         1 MOL      0.438763
     79 O14        -2.4930   -2.4480    1.5270 o         1 MOL     -0.541567
     80 C27        -3.1360   -5.5620    0.2100 c3        1 MOL     -0.270230
     81 C28        -2.8940   -4.7100   -1.0740 c3        1 MOL     -0.274319
     82 C29        -2.3980   -5.4170   -2.3380 c         1 MOL      0.748516
     83 N8         -2.2640   -4.7520   -3.4230 n         1 MOL     -0.837045
     84 O15        -2.0460   -6.5490   -2.4030 o         1 MOL     -0.642795
     85 H33        -4.7460   -3.3510    0.3510 hn        1 MOL      0.195127
     86 H34        -3.4570   -5.3020    2.3320 h1        1 MOL      0.031223
     87 H35        -3.9350   -6.3040    0.1280 hc        1 MOL      0.092025
     88 H36        -2.2880   -6.1420    0.5530 hc        1 MOL      0.092025
     89 H37        -2.1260   -3.9650   -0.8840 hc        1 MOL      0.140283
     90 H38        -3.8920   -4.3260   -1.3040 hc        1 MOL      0.140283
     91 H39        -2.6610   -3.8220   -3.4960 hn        1 MOL      0.361927
     92 H40        -1.6780   -5.1200   -4.1670 hn        1 MOL      0.361927
     93 N9         -1.0390   -4.1560    1.8900 n         1 MOL     -0.323948
     94 C30         0.1790   -3.4780    2.2000 c3        1 MOL      0.037554
     95 C31         1.2120   -3.5800    1.1570 c         1 MOL      0.464433
     96 O16         1.5880   -4.7190    0.9030 o         1 MOL     -0.567028
     97 C32         0.7450   -3.7240    3.5980 c3        1 MOL      0.092572
     98 C33         2.0480   -3.0020    3.9830 c3        1 MOL     -0.262896
     99 C34        -0.3120   -3.3630    4.6480 c3        1 MOL     -0.262896
    100 H41        -0.8930   -5.1610    1.8600 hn        1 MOL      0.240849
    101 H42        -0.1670   -2.4540    2.2100 h1        1 MOL      0.132085
    102 H43         1.0160   -4.7680    3.6920 hc        1 MOL      0.005745
    103 H44         2.8740   -3.4820    3.4520 hc        1 MOL      0.065282
    104 H45         1.9730   -1.9270    3.8280 hc        1 MOL      0.065282
    105 H46         2.2910   -3.2550    5.0130 hc        1 MOL      0.065282
    106 H47        -1.3030   -3.7350    4.3820 hc        1 MOL      0.065282
    107 H48         0.0520   -3.6910    5.6240 hc        1 MOL      0.065282
    108 H49        -0.5120   -2.2960    4.7020 hc        1 MOL      0.065282
    109 N10         1.8760   -2.5120    0.6300 n         1 MOL     -0.236731
    110 C35         3.0840   -2.5010   -0.1820 c3        1 MOL      0.099658
    111 C36         4.3600   -2.1770    0.6180 c         1 MOL      0.261517
    112 O17         4.3320   -1.7040    1.7460 o         1 MOL     -0.324577
    113 C37         2.8530   -1.4400   -1.2540 c3        1 MOL     -0.118661
    114 C38         4.0840   -1.2390   -2.0630 c         1 MOL      0.676188
    115 N11         4.4800   -2.1760   -2.8250 n         1 MOL     -0.761399
    116 O18         4.6510   -0.1420   -2.0560 o         1 MOL     -0.564360
    117 H50         1.4050   -1.6370    0.7900 hn        1 MOL      0.203306
    118 H51         3.2650   -3.4620   -0.6630 h1        1 MOL      0.037478
    119 H52         2.5190   -0.4610   -0.9190 hc        1 MOL      0.058684
    120 H53         2.1280   -1.8070   -1.9860 hc        1 MOL      0.058684
    121 H54         4.0030   -3.0500   -2.9770 hn        1 MOL      0.365025
    122 H55         5.1580   -1.8790   -3.5170 hn        1 MOL      0.365025
    123 N12         5.5740   -2.4370    0.1950 n         1 MOL     -0.198526
    124 C39         6.8190   -2.1080    0.8790 c3        1 MOL      0.100903
    125 C40         6.9510   -0.6200    1.2280 c         1 MOL      0.374719
    126 O19         7.2990   -0.2900    2.3340 o         1 MOL     -0.535012
    127 C41         8.0230   -2.5990    0.0720 c3        1 MOL     -0.155124
    128 C42         7.9630   -2.4010   -1.4260 ca        1 MOL     -0.020702
    129 C43         7.5920   -3.4460   -2.2720 ca        1 MOL     -0.096700
    130 C44         8.4800   -1.2290   -1.9880 ca        1 MOL     -0.096700
    131 C45         7.5650   -3.3010   -3.6750 ca        1 MOL     -0.332276
    132 C46         8.3450   -0.9280   -3.3780 ca        1 MOL     -0.332276
    133 C47         7.9370   -2.0130   -4.2440 ca        1 MOL      0.380779
    134 O20         7.7310   -1.7690   -5.5330 oh        1 MOL     -0.528853
    135 H56         5.7430   -2.9230   -0.6670 hn        1 MOL      0.137219
    136 H57         6.8270   -2.6550    1.8220 h1        1 MOL      0.060586
    137 H58         8.0690   -3.6610    0.3440 hc        1 MOL      0.062086
    138 H59         8.9210   -2.1970    0.5350 hc        1 MOL      0.062086
    139 H60         7.3020   -4.3820   -1.8290 ha        1 MOL      0.111827
    140 H61         8.8720   -0.4890   -1.2960 ha        1 MOL      0.111827
    141 H62         7.1170   -4.0730   -4.2780 ha        1 MOL      0.149112
    142 H63         8.5040    0.0960   -3.6890 ha        1 MOL      0.149112
    143 H64         8.1520   -0.9330   -5.7500 ho        1 MOL      0.424840
    144 N13         6.5810    0.3400    0.2660 n         1 MOL     -0.195647
    145 C48         6.5220    1.7870    0.4630 c3        1 MOL     -0.129141
    146 C49         5.4570    2.3140    1.4460 c         1 MOL      0.381615
    147 O21         5.5600    3.4960    1.7150 o         1 MOL     -0.520967
    148 C50         6.2230    2.5350   -0.8450 c3        1 MOL     -0.032754
    149 C51         7.1350    1.9970   -1.9280 c3        1 MOL     -0.114973
    150 C52         7.2720    2.9750   -3.1220 c         1 MOL      0.692630
    151 O22         8.2510    2.8950   -3.8490 o         1 MOL     -0.731829
    152 O23         6.2900    3.7300   -3.3880 o         1 MOL     -0.731829
    153 H65         6.2320   -0.0140   -0.6130 hn        1 MOL      0.298774
    154 H66         7.5140    2.0970    0.8000 h1        1 MOL      0.101149
    155 H67         6.3920    3.6050   -0.7130 hc        1 MOL      0.046232
    156 H68         5.1820    2.4190   -1.1470 hc        1 MOL      0.046232
    157 H69         6.7460    1.0560   -2.3340 hc        1 MOL      0.022782
    158 H70         8.0890    1.8700   -1.4360 hc        1 MOL      0.022782
    159 N14         4.4980    1.4620    1.8800 n         1 MOL     -0.109064
    160 C53         3.4940    1.6370    2.9050 c3        1 MOL      0.076359
    161 C54         4.0320    0.9900    4.1570 c         1 MOL      0.471365
    162 O24         3.8840    1.5400    5.2260 o         1 MOL     -0.565319
    163 C55         2.1850    1.0790    2.4320 c3        1 MOL     -0.289261
    164 C56         1.4260    1.8440    1.2650 c3        1 MOL      0.065327
    165 C57         0.1760    1.1310    0.7530 c         1 MOL      0.880347
    166 O25        -0.7260    1.7490    0.1610 o         1 MOL     -0.863707
    167 O26         0.0340   -0.1250    0.8260 o         1 MOL     -0.863707
    168 H71         4.4290    0.5610    1.4390 hn        1 MOL      0.022405
    169 H72         3.4710    2.6740    3.2320 h1        1 MOL      0.051383
    170 H73         1.4880    0.8150    3.2390 hc        1 MOL      0.101412
    171 H74         2.4780    0.0870    2.1030 hc        1 MOL      0.101412
    172 H75         2.0590    1.9900    0.3870 hc        1 MOL      0.002289
    173 H76         1.2220    2.9090    1.3900 hc        1 MOL      0.002289
    174 N15         4.6510   -0.1950    3.9830 n         1 MOL     -0.104196
    175 C58         5.2140   -0.9540    5.1330 c3        1 MOL     -0.129442
    176 H77         5.2610   -2.0130    4.8800 h1        1 MOL      0.053668
    177 H78         6.2170   -0.5880    5.3540 h1        1 MOL      0.053668
    178 H79         4.5760   -0.8170    6.0060 h1        1 MOL      0.053668
    179 H80         4.5830   -0.6880    3.1110 hn        1 MOL      0.093342
    180 Ca1        -2.5530   -0.0940    0.2170 Ca        1 MOL      1.805192
    181 O27        -2.2300    0.3750    2.8700 oh        1 MOL     -0.908195
    182 H81        -1.7770    0.8830    3.5450 ho        1 MOL      0.422811
    183 H82        -2.6830   -0.3210    3.3470 ho        1 MOL      0.422811
    184 O28        -5.2350    0.1330    1.4020 oh        1 MOL     -0.908195
    185 H83        -5.5980    1.0000    1.5670 ho        1 MOL      0.422811
    186 H84        -5.6370   -0.4270    2.0580 ho        1 MOL      0.422811
    187 O29        -1.2710   -1.7740   -1.4370 oh        1 MOL     -0.908195
    188 H85        -1.8240   -1.9600   -2.1950 ho        1 MOL      0.422811
    189 H86        -0.5020   -1.3370   -1.8020 ho        1 MOL      0.422811
@<TRIPOS>BOND
     1    1    2 1   
     2    1    4 1   
     3    1    5 1   
     4    1    6 1   
     5    2    3 2   
     6    2    7 1   
     7    7    8 1   
     8    7   15 1   
     9    8    9 1   
    10    8   11 1   
    11    8   16 1   
    12    9   10 2   
    13    9   19 1   
    14   11   12 1   
    15   11   17 1   
    16   11   18 1   
    17   12   13 1   
    18   12   14 1   
    19   19   20 1   
    20   19   27 1   
    21   20   21 1   
    22   20   23 1   
    23   20   28 1   
    24   21   22 2   
    25   21   38 1   
    26   23   24 1   
    27   23   25 1   
    28   23   29 1   
    29   24   26 1   
    30   24   30 1   
    31   24   31 1   
    32   25   32 1   
    33   25   33 1   
    34   25   34 1   
    35   26   35 1   
    36   26   36 1   
    37   26   37 1   
    38   38   39 1   
    39   38   46 1   
    40   39   40 1   
    41   39   42 1   
    42   39   47 1   
    43   40   41 2   
    44   40   50 1   
    45   42   43 1   
    46   42   48 1   
    47   42   49 1   
    48   43   44 1   
    49   43   45 1   
    50   50   51 1   
    51   50   54 1   
    52   51   52 1   
    53   51   55 1   
    54   51   56 1   
    55   52   53 2   
    56   52   57 1   
    57   57   58 1   
    58   57   65 1   
    59   58   59 1   
    60   58   61 1   
    61   58   66 1   
    62   59   60 2   
    63   59   69 1   
    64   61   62 1   
    65   61   67 1   
    66   61   68 1   
    67   62   63 1   
    68   62   64 1   
    69   69   70 1   
    70   69   73 1   
    71   70   71 1   
    72   70   74 1   
    73   70   75 1   
    74   71   72 2   
    75   71   76 1   
    76   76   77 1   
    77   76   85 1   
    78   77   78 1   
    79   77   80 1   
    80   77   86 1   
    81   78   79 2   
    82   78   93 1   
    83   80   81 1   
    84   80   87 1   
    85   80   88 1   
    86   81   82 1   
    87   81   89 1   
    88   81   90 1   
    89   82   83 1   
    90   82   84 2   
    91   83   91 1   
    92   83   92 1   
    93   93   94 1   
    94   93  100 1   
    95   94   95 1   
    96   94   97 1   
    97   94  101 1   
    98   95   96 2   
    99   95  109 1   
   100   97   98 1   
   101   97   99 1   
   102   97  102 1   
   103   98  103 1   
   104   98  104 1   
   105   98  105 1   
   106   99  106 1   
   107   99  107 1   
   108   99  108 1   
   109  109  110 1   
   110  109  117 1   
   111  110  111 1   
   112  110  113 1   
   113  110  118 1   
   114  111  112 2   
   115  111  123 1   
   116  113  114 1   
   117  113  119 1   
   118  113  120 1   
   119  114  115 1   
   120  114  116 2   
   121  115  121 1   
   122  115  122 1   
   123  123  124 1   
   124  123  135 1   
   125  124  125 1   
   126  124  127 1   
   127  124  136 1   
   128  125  126 2   
   129  125  144 1   
   130  127  128 1   
   131  127  137 1   
   132  127  138 1   
   133  128  129 ar  
   134  128  130 ar  
   135  129  131 ar  
   136  129  139 1   
   137  130  132 ar  
   138  130  140 1   
   139  131  133 ar  
   140  131  141 1   
   141  132  133 ar  
   142  132  142 1   
   143  133  134 1   
   144  134  143 1   
   145  144  145 1   
   146  144  153 1   
   147  145  146 1   
   148  145  148 1   
   149  145  154 1   
   150  146  147 2   
   151  146  159 1   
   152  148  149 1   
   153  148  155 1   
   154  148  156 1   
   155  149  150 1   
   156  149  157 1   
   157  149  158 1   
   158  150  151 1   
   159  150  152 1   
   160  159  160 1   
   161  159  168 1   
   162  160  161 1   
   163  160  163 1   
   164  160  169 1   
   165  161  162 2   
   166  161  174 1   
   167  163  164 1   
   168  163  170 1   
   169  163  171 1   
   170  164  165 1   
   171  164  172 1   
   172  164  173 1   
   173  165  166 1   
   174  165  167 1   
   175  174  175 1   
   176  174  179 1   
   177  175  176 1   
   178  175  177 1   
   179  175  178 1   
   180  181  182 1   
   181  181  183 1   
   182  184  185 1   
   183  184  186 1   
   184  187  188 1   
   185  187  189 1   
@<TRIPOS>SUBSTRUCTURE
     1 MOL         1 TEMP              0 ****  ****    0 ROOT
