@<TRIPOS>MOLECULE
MOL
  175   173     1     0     0
SMALL
resp


@<TRIPOS>ATOM
      1 C1         -0.1180    5.2130    4.9410 c3        1 MOL     -0.349793
      2 C2         -0.8380    5.0710    3.6000 c         1 MOL      0.694068
      3 O1         -0.2550    5.5430    2.6230 o         1 MOL     -0.552501
      4 H1          0.4670    6.1340    4.9430 hc        1 MOL      0.078250
      5 H2         -0.8530    5.2480    5.7460 hc        1 MOL      0.078250
      6 H3          0.5450    4.3620    5.0910 hc        1 MOL      0.078250
      7 N1         -2.0470    4.5050    3.5670 n         1 MOL     -0.579767
      8 C3         -2.6200    3.9610    2.3220 c3        1 MOL     -0.074569
      9 C4         -3.0060    4.9590    1.2980 c         1 MOL      0.741783
     10 O2         -3.5230    6.0250    1.6000 o         1 MOL     -0.583573
     11 C5         -3.8840    3.2270    2.7930 c3        1 MOL     -0.310915
     12 C6         -4.6080    2.3560    1.7680 c         1 MOL      0.811455
     13 O3         -5.8200    2.0950    1.9680 o         1 MOL     -0.688651
     14 O4         -4.0210    2.0060    0.7280 o         1 MOL     -0.688651
     15 H4         -2.4570    4.2210    4.4460 hn        1 MOL      0.336732
     16 H5         -1.9320    3.2180    1.9130 h1        1 MOL      0.171241
     17 H6         -4.5010    3.9850    3.2790 hc        1 MOL      0.063347
     18 H7         -3.6740    2.4870    3.5530 hc        1 MOL      0.063347
     19 N2         -2.8550    4.6820   -0.0020 n         1 MOL     -0.602330
     20 C7         -3.4230    5.5470   -1.0390 c3        1 MOL      0.278551
     21 C8         -4.4860    4.8090   -1.8880 c         1 MOL      0.389649
     22 O5         -5.2820    5.4840   -2.6250 o         1 MOL     -0.593274
     23 C9         -2.2320    5.8250   -2.0360 c3        1 MOL     -0.256026
     24 H8         -2.5450    3.7630   -0.2750 hn        1 MOL      0.309947
     25 H9         -3.8580    6.4830   -0.6940 h1        1 MOL      0.049720
     26 H10        -1.4970    6.5430   -1.6710 hc        1 MOL      0.063675
     27 H11        -1.7120    4.9630   -2.4450 hc        1 MOL      0.063675
     28 H12        -2.6330    6.2570   -2.9520 hc        1 MOL      0.063675
     29 N3         -4.6630    3.5120   -1.7760 n         1 MOL     -0.198175
     30 C10        -5.4280    2.7530   -2.8380 c3        1 MOL     -0.001679
     31 C11        -6.6150    1.8140   -2.3910 c         1 MOL      0.361480
     32 O6         -7.5100    1.4410   -3.1840 o         1 MOL     -0.536786
     33 C12        -4.4010    1.9790   -3.6970 c3        1 MOL     -0.059248
     34 C13        -3.5190    1.0980   -2.8610 c         1 MOL      0.629486
     35 O7         -2.3410    0.9380   -3.1980 o         1 MOL     -0.681303
     36 O8         -4.0070    0.4920   -1.8410 o         1 MOL     -0.681303
     37 H13        -4.2440    2.9590   -1.0400 hn        1 MOL      0.171563
     38 H14        -5.8510    3.4830   -3.5230 h1        1 MOL      0.096925
     39 H15        -3.7350    2.6500   -4.2370 hc        1 MOL      0.023149
     40 H16        -4.9750    1.4270   -4.4410 hc        1 MOL      0.023149
     41 N4         -6.5360    1.4680   -1.0930 n         1 MOL     -0.141195
     42 C14        -7.5320    0.5940   -0.4530 c3        1 MOL     -0.136962
     43 C15        -7.3910   -0.9570   -0.8330 c         1 MOL      0.446214
     44 O9         -8.2840   -1.7480   -0.6220 o         1 MOL     -0.598620
     45 H17        -5.7660    1.7260   -0.4940 hn        1 MOL      0.108733
     46 H18        -8.5440    0.9660   -0.5970 h1        1 MOL      0.093617
     47 H19        -7.3590    0.6850    0.6180 h1        1 MOL      0.093617
     48 N5         -6.2950   -1.3400   -1.4480 n         1 MOL     -0.134608
     49 C16        -5.9700   -2.6760   -1.9280 c3        1 MOL     -0.132972
     50 C17        -5.8160   -3.7030   -0.7830 c         1 MOL      0.507665
     51 O10        -5.6200   -4.8410   -1.1600 o         1 MOL     -0.533218
     52 C18        -4.8680   -2.6990   -2.9540 c3        1 MOL     -0.040521
     53 C19        -3.4660   -2.5960   -2.3440 c         1 MOL      0.414480
     54 N6         -2.4950   -2.5220   -3.1560 n         1 MOL     -0.464705
     55 O11        -3.2390   -2.4630   -1.1490 o         1 MOL     -0.492197
     56 H20        -5.5070   -0.7000   -1.4380 hn        1 MOL      0.180612
     57 H21        -6.8630   -3.0280   -2.4490 h1        1 MOL      0.108252
     58 H22        -5.0360   -1.9100   -3.6920 hc        1 MOL      0.041697
     59 H23        -4.8810   -3.6140   -3.5510 hc        1 MOL      0.041697
     60 H24        -2.6570   -2.6380   -4.1400 hn        1 MOL      0.291786
     61 H25        -1.5450   -2.4390   -2.8180 hn        1 MOL      0.291786
     62 N7         -5.8570   -3.3170    0.4930 n         1 MOL     -0.196980
     63 C20        -5.7400   -4.1960    1.7020 c3        1 MOL     -0.309992
     64 C21        -4.3930   -4.8100    2.0040 c         1 MOL      0.612860
     65 O12        -4.3070   -5.7690    2.7430 o         1 MOL     -0.598245
     66 H26        -5.8700   -2.3230    0.6670 hn        1 MOL      0.233605
     67 H27        -6.4160   -5.0550    1.7990 h1        1 MOL      0.118302
     68 H28        -5.8850   -3.5180    2.5500 h1        1 MOL      0.118302
     69 N8         -3.3670   -4.2730    1.3810 n         1 MOL     -0.195832
     70 C22        -1.9800   -4.6900    1.4720 c3        1 MOL     -0.244286
     71 C23        -1.0410   -3.4880    1.6230 c         1 MOL      0.539077
     72 O13        -1.2800   -2.4280    1.0780 o         1 MOL     -0.595881
     73 C24        -1.4900   -5.6020    0.3020 c3        1 MOL      0.604088
     74 C25        -2.1000   -6.9840    0.2210 c3        1 MOL     -0.449065
     75 O14        -1.7270   -4.8560   -0.8980 oh        1 MOL     -0.609338
     76 H29        -3.6840   -3.5880    0.7080 hn        1 MOL      0.163729
     77 H30        -1.8300   -5.2770    2.3780 h1        1 MOL      0.069593
     78 H31        -0.4230   -5.8280    0.2960 h1        1 MOL     -0.055532
     79 H32        -1.5330   -3.9320   -0.7460 ho        1 MOL      0.336129
     80 H33        -3.0540   -6.9260   -0.3120 hc        1 MOL      0.108970
     81 H34        -1.4370   -7.6530   -0.3260 hc        1 MOL      0.108970
     82 H35        -2.2680   -7.4980    1.1670 hc        1 MOL      0.108970
     83 N9          0.1030   -3.7300    2.3120 n         1 MOL     -0.448555
     84 C26         1.2290   -2.8120    2.3520 c3        1 MOL      0.113516
     85 C27         1.9760   -3.1540    1.0400 c         1 MOL      0.611574
     86 O15         2.2430   -4.2930    0.7160 o         1 MOL     -0.616456
     87 C28         2.0500   -2.8710    3.6500 c3        1 MOL     -0.195316
     88 C29         1.4880   -1.9810    4.7720 c3        1 MOL     -0.080543
     89 C30         3.5530   -2.5350    3.4940 c3        1 MOL      0.028622
     90 C31         1.6040   -0.4990    4.6090 c3        1 MOL     -0.237078
     91 H36         0.2530   -4.6600    2.6900 hn        1 MOL      0.257524
     92 H37         0.9350   -1.7720    2.2530 h1        1 MOL      0.245598
     93 H38         2.0160   -3.9000    4.0000 hc        1 MOL      0.063212
     94 H39         2.0430   -2.2080    5.6770 hc        1 MOL      0.047118
     95 H40         0.4800   -2.3300    5.0290 hc        1 MOL      0.047118
     96 H41         4.0720   -3.2920    2.9040 hc        1 MOL     -0.002187
     97 H42         3.6200   -1.6040    2.9380 hc        1 MOL     -0.002187
     98 H43         4.1340   -2.4620    4.4060 hc        1 MOL     -0.002187
     99 H44         2.6240   -0.1230    4.6150 hc        1 MOL      0.068241
    100 H45         1.2080   -0.1450    3.6540 hc        1 MOL      0.068241
    101 H46         1.1370   -0.1090    5.5070 hc        1 MOL      0.068241
    102 N10         2.2480   -2.1050    0.3620 n         1 MOL     -0.166003
    103 C32         3.0270   -2.1040   -0.8710 c3        1 MOL     -0.000109
    104 C33         4.4180   -1.4550   -0.6410 c         1 MOL      0.469658
    105 O16         4.6250   -0.7620    0.4030 o         1 MOL     -0.374723
    106 C34         2.2650   -1.2700   -1.9100 c3        1 MOL     -0.358004
    107 C35         0.7810   -1.6670   -2.1580 c         1 MOL      0.933617
    108 O17         0.5170   -2.3900   -3.0770 o         1 MOL     -0.745581
    109 O18        -0.1800   -1.1350   -1.6490 o         1 MOL     -0.745581
    110 H47         1.9370   -1.2030    0.7130 hn        1 MOL     -0.084791
    111 H48         3.0830   -3.1040   -1.2920 h1        1 MOL      0.095906
    112 H49         2.8320   -1.3970   -2.8390 hc        1 MOL      0.099794
    113 H50         2.1290   -0.2170   -1.6440 hc        1 MOL      0.099794
    114 N11         5.4100   -1.5900   -1.5300 n         1 MOL     -0.631903
    115 C36         6.7990   -1.0780   -1.3410 c3        1 MOL      0.379472
    116 C37         6.8790    0.4750   -1.1820 c         1 MOL      0.250879
    117 O19         7.5090    0.9430   -0.2400 o         1 MOL     -0.483041
    118 C38         7.8100   -1.6880   -2.3690 c3        1 MOL     -0.355076
    119 C39         9.2620   -1.4410   -1.9610 ca        1 MOL      0.076831
    120 C40         9.9890   -0.4040   -2.5700 ca        1 MOL     -0.114735
    121 C41         9.8590   -2.1780   -0.8840 ca        1 MOL     -0.114735
    122 C42        11.3630   -0.2890   -2.2260 ca        1 MOL     -0.163898
    123 C43        11.1490   -1.9410   -0.4510 ca        1 MOL     -0.163898
    124 C44        11.8960   -1.0510   -1.1650 ca        1 MOL     -0.053597
    125 H51         5.2430   -2.0930   -2.3870 hn        1 MOL      0.336639
    126 H52         7.1350   -1.3570   -0.3400 h1        1 MOL      0.063506
    127 H53         7.6750   -1.3370   -3.3900 hc        1 MOL      0.106948
    128 H54         7.6370   -2.7580   -2.2670 hc        1 MOL      0.106948
    129 H55         9.6060    0.2980   -3.3020 ha        1 MOL      0.117194
    130 H56         9.2840   -2.8910   -0.3200 ha        1 MOL      0.117194
    131 H57        11.9060    0.5360   -2.6510 ha        1 MOL      0.125731
    132 H58        11.5350   -2.4780    0.4000 ha        1 MOL      0.125731
    133 H59        12.9050   -0.8120   -0.8620 ha        1 MOL      0.083282
    134 N12         6.1720    1.2920   -1.9770 n         1 MOL      0.028732
    135 C45         6.0870    2.6960   -1.7320 c3        1 MOL      0.122262
    136 C46         5.3430    3.0890   -0.4400 c         1 MOL      0.287524
    137 O20         5.5160    4.1160    0.0740 o         1 MOL     -0.500974
    138 C47         5.5320    3.2680   -3.0410 c3        1 MOL     -0.246402
    139 C48         5.7880    2.1870   -4.1210 c3        1 MOL      0.073145
    140 C49         5.6960    0.9350   -3.3200 c3        1 MOL      0.003358
    141 H60         7.1260    3.0340   -1.6620 h1        1 MOL      0.041783
    142 H61         4.4560    3.4220   -2.9800 hc        1 MOL      0.087831
    143 H62         6.0830    4.1650   -3.3170 hc        1 MOL      0.087831
    144 H63         5.0820    2.1510   -4.9460 hc        1 MOL      0.002311
    145 H64         6.7620    2.2920   -4.6080 hc        1 MOL      0.002311
    146 H65         4.6840    0.5490   -3.2670 h1        1 MOL      0.012015
    147 H66         6.4160    0.2140   -3.7130 h1        1 MOL      0.012015
    148 N13         4.6240    2.2110    0.1750 n         1 MOL     -0.071371
    149 C50         4.0460    2.2970    1.5250 c3        1 MOL     -0.055264
    150 C51         5.0700    1.7480    2.5630 c         1 MOL      0.448317
    151 O21         5.2590    2.4330    3.6040 o         1 MOL     -0.593296
    152 C52         2.6980    1.5130    1.5930 c3        1 MOL      0.079618
    153 C53         1.6350    2.1180    0.6800 c3        1 MOL     -0.053629
    154 C54         0.3380    1.4260    0.6360 c         1 MOL      0.791287
    155 O22        -0.6900    2.0270    0.1740 o         1 MOL     -0.848333
    156 O23         0.2590    0.2770    1.1430 o         1 MOL     -0.848333
    157 H67         4.5430    1.3170   -0.2960 hn        1 MOL      0.080081
    158 H68         3.8120    3.3080    1.8410 h1        1 MOL      0.106146
    159 H69         2.4720    1.5150    2.6650 hc        1 MOL     -0.000592
    160 H70         2.7790    0.4410    1.4030 hc        1 MOL     -0.000592
    161 H71         2.0120    2.1060   -0.3400 hc        1 MOL      0.035748
    162 H72         1.4700    3.1540    0.9720 hc        1 MOL      0.035748
    163 N14         5.8220    0.7220    2.2550 n         1 MOL      0.009558
    164 C55         6.8990    0.0920    3.0500 c3        1 MOL     -0.282227
    165 H73         7.5070    0.8680    3.5160 h1        1 MOL      0.101407
    166 H74         6.4590   -0.5370    3.8230 h1        1 MOL      0.101407
    167 H75         7.5240   -0.5160    2.3970 h1        1 MOL      0.101407
    168 H76         5.7010    0.3690    1.3110 hn        1 MOL      0.039955
    169 Ca1        -2.1000   -0.0210   -0.1790 Ca        1 MOL      1.771715
    170 O24        -1.9160    0.4450    2.6900 oh        1 MOL     -0.812803
    171 H77        -2.0880    0.7300    3.5910 ho        1 MOL      0.394934
    172 H78        -0.9540    0.4040    2.6410 ho        1 MOL      0.394934
    173 O25        -4.7490   -0.8170    1.3330 oh        1 MOL     -0.812803
    174 H79        -4.8250    0.1370    1.2600 ho        1 MOL      0.394934
    175 H80        -5.1060   -1.0190    2.2020 ho        1 MOL      0.394934
@<TRIPOS>BOND
     1    1    2 1   
     2    1    4 1   
     3    1    5 1   
     4    1    6 1   
     5    2    3 2   
     6    2    7 1   
     7    7    8 1   
     8    7   15 1   
     9    8    9 1   
    10    8   11 1   
    11    8   16 1   
    12    9   10 2   
    13    9   19 1   
    14   11   12 1   
    15   11   17 1   
    16   11   18 1   
    17   12   13 1   
    18   12   14 1   
    19   19   20 1   
    20   19   24 1   
    21   20   21 1   
    22   20   23 1   
    23   20   25 1   
    24   21   22 2   
    25   21   29 1   
    26   23   26 1   
    27   23   27 1   
    28   23   28 1   
    29   29   30 1   
    30   29   37 1   
    31   30   31 1   
    32   30   33 1   
    33   30   38 1   
    34   31   32 2   
    35   31   41 1   
    36   33   34 1   
    37   33   39 1   
    38   33   40 1   
    39   34   35 1   
    40   34   36 1   
    41   41   42 1   
    42   41   45 1   
    43   42   43 1   
    44   42   46 1   
    45   42   47 1   
    46   43   44 2   
    47   43   48 1   
    48   48   49 1   
    49   48   56 1   
    50   49   50 1   
    51   49   52 1   
    52   49   57 1   
    53   50   51 2   
    54   50   62 1   
    55   52   53 1   
    56   52   58 1   
    57   52   59 1   
    58   53   54 1   
    59   53   55 2   
    60   54   60 1   
    61   54   61 1   
    62   62   63 1   
    63   62   66 1   
    64   63   64 1   
    65   63   67 1   
    66   63   68 1   
    67   64   65 2   
    68   64   69 1   
    69   69   70 1   
    70   69   76 1   
    71   70   71 1   
    72   70   73 1   
    73   70   77 1   
    74   71   72 2   
    75   71   83 1   
    76   73   74 1   
    77   73   75 1   
    78   73   78 1   
    79   74   80 1   
    80   74   81 1   
    81   74   82 1   
    82   75   79 1   
    83   83   84 1   
    84   83   91 1   
    85   84   85 1   
    86   84   87 1   
    87   84   92 1   
    88   85   86 2   
    89   85  102 1   
    90   87   88 1   
    91   87   89 1   
    92   87   93 1   
    93   88   90 1   
    94   88   94 1   
    95   88   95 1   
    96   89   96 1   
    97   89   97 1   
    98   89   98 1   
    99   90   99 1   
   100   90  100 1   
   101   90  101 1   
   102  102  103 1   
   103  102  110 1   
   104  103  104 1   
   105  103  106 1   
   106  103  111 1   
   107  104  105 2   
   108  104  114 1   
   109  106  107 1   
   110  106  112 1   
   111  106  113 1   
   112  107  108 1   
   113  107  109 1   
   114  114  115 1   
   115  114  125 1   
   116  115  116 1   
   117  115  118 1   
   118  115  126 1   
   119  116  117 2   
   120  116  134 1   
   121  118  119 1   
   122  118  127 1   
   123  118  128 1   
   124  119  120 ar  
   125  119  121 ar  
   126  120  122 ar  
   127  120  129 1   
   128  121  123 ar  
   129  121  130 1   
   130  122  124 ar  
   131  122  131 1   
   132  123  124 ar  
   133  123  132 1   
   134  124  133 1   
   135  134  135 1   
   136  134  140 1   
   137  135  136 1   
   138  135  138 1   
   139  135  141 1   
   140  136  137 2   
   141  136  148 1   
   142  138  139 1   
   143  138  142 1   
   144  138  143 1   
   145  139  140 1   
   146  139  144 1   
   147  139  145 1   
   148  140  146 1   
   149  140  147 1   
   150  148  149 1   
   151  148  157 1   
   152  149  150 1   
   153  149  152 1   
   154  149  158 1   
   155  150  151 2   
   156  150  163 1   
   157  152  153 1   
   158  152  159 1   
   159  152  160 1   
   160  153  154 1   
   161  153  161 1   
   162  153  162 1   
   163  154  155 1   
   164  154  156 1   
   165  163  164 1   
   166  163  168 1   
   167  164  165 1   
   168  164  166 1   
   169  164  167 1   
   170  170  171 1   
   171  170  172 1   
   172  173  174 1   
   173  173  175 1   
@<TRIPOS>SUBSTRUCTURE
     1 MOL         1 TEMP              0 ****  ****    0 ROOT
