@<TRIPOS>MOLECULE
MOL
  189   185     1     0     0
SMALL
resp


@<TRIPOS>ATOM
      1 C1          0.2330    2.6800   -5.8020 c3        1 MOL     -0.330877
      2 C2          0.6470    2.4760   -4.3410 c         1 MOL      0.807761
      3 O1         -0.0990    2.7400   -3.4380 o         1 MOL     -0.686185
      4 H1          1.0010    2.2690   -6.4570 hc        1 MOL      0.079046
      5 H2         -0.7120    2.1690   -5.9880 hc        1 MOL      0.079046
      6 H3          0.1170    3.7450   -6.0020 hc        1 MOL      0.079046
      7 N1          1.8680    2.0290   -4.0560 n         1 MOL     -0.717150
      8 C3          2.3540    1.7750   -2.6830 c3        1 MOL      0.208343
      9 C4          2.7030    3.0950   -1.8920 c         1 MOL      0.452334
     10 O2          3.6130    3.7830   -2.3830 o         1 MOL     -0.547510
     11 C5          3.6290    0.8280   -2.6600 c3        1 MOL     -0.312338
     12 C6          4.0730    0.4980   -1.2490 c         1 MOL      0.841304
     13 O3          5.1520   -0.2140   -1.0890 o         1 MOL     -0.683267
     14 O4          3.3390    0.6490   -0.2410 o         1 MOL     -0.683267
     15 H4          2.4840    1.9010   -4.8460 hn        1 MOL      0.358971
     16 H5          1.5580    1.2170   -2.2020 h1        1 MOL      0.039066
     17 H6          4.4580    1.3210   -3.1560 hc        1 MOL      0.082409
     18 H7          3.4140   -0.1210   -3.1620 hc        1 MOL      0.082409
     19 N2          2.0550    3.4270   -0.7240 n         1 MOL     -0.093984
     20 C7          2.1150    4.8060   -0.1170 c3        1 MOL     -0.006998
     21 C8          3.1670    4.9390    0.9740 c         1 MOL      0.462425
     22 O5          3.8570    5.9740    0.9800 o         1 MOL     -0.558808
     23 C9          0.6870    5.2020    0.3980 c3        1 MOL      0.087331
     24 C10        -0.4390    5.4650   -0.6620 c3        1 MOL      0.093990
     25 C11        -0.0930    6.4380   -1.8350 c3        1 MOL     -0.403269
     26 C12        -0.3250    5.8150   -3.1830 c3        1 MOL      0.232755
     27 N3         -0.2270    6.7710   -4.2280 n4        1 MOL     -0.482928
     28 H8          1.6380    2.6090   -0.3140 hn        1 MOL      0.127300
     29 H9          2.3390    5.5540   -0.8810 h1        1 MOL      0.007620
     30 H10         0.7990    6.0970    1.0120 hc        1 MOL     -0.017756
     31 H11         0.3750    4.4290    1.1000 hc        1 MOL     -0.017756
     32 H12        -1.2980    5.8600   -0.1210 hc        1 MOL      0.032897
     33 H13        -0.5340    4.4990   -1.1690 hc        1 MOL      0.032897
     34 H14         0.9510    6.7420   -1.8210 hc        1 MOL      0.123821
     35 H15        -0.5190    7.4120   -1.6170 hc        1 MOL      0.123821
     36 H16        -1.2810    5.3090   -3.2980 hx        1 MOL      0.068956
     37 H17         0.4160    5.0540   -3.4230 hx        1 MOL      0.068956
     38 H18        -1.0300    7.3790   -4.2990 hn        1 MOL      0.343655
     39 H19         0.6070    7.3330   -4.2510 hn        1 MOL      0.343655
     40 H20        -0.1220    6.2130   -5.0600 hn        1 MOL      0.343655
     41 N4          3.2530    3.9180    1.7960 n         1 MOL     -0.251001
     42 C13         4.0920    3.8620    2.9680 c3        1 MOL      0.057094
     43 C14         5.4090    3.0280    2.7140 c         1 MOL      0.341314
     44 O6          6.3440    3.1220    3.5310 o         1 MOL     -0.479419
     45 C15         3.3380    3.3850    4.2100 c3        1 MOL     -0.322906
     46 C16         2.5590    2.0860    3.9060 c         1 MOL      0.927734
     47 O7          2.9550    1.2760    3.1190 o         1 MOL     -0.721868
     48 O8          1.5700    1.8620    4.6520 o         1 MOL     -0.721868
     49 H21         2.8560    3.0760    1.4190 hn        1 MOL      0.154717
     50 H22         4.4190    4.8940    3.1380 h1        1 MOL      0.096365
     51 H23         2.6510    4.2060    4.4200 hc        1 MOL      0.077651
     52 H24         4.0250    3.2340    5.0470 hc        1 MOL      0.077651
     53 N5          5.5340    2.2990    1.5580 n         1 MOL     -0.055512
     54 C17         6.8550    1.9550    0.9870 c3        1 MOL     -0.032051
     55 C18         7.4170    0.6800    1.5640 c         1 MOL      0.480551
     56 O9          8.4800    0.7790    2.2220 o         1 MOL     -0.538210
     57 H25         4.7380    2.2360    0.9500 hn        1 MOL      0.083383
     58 H26         7.5370    2.7990    1.0560 h1        1 MOL      0.042209
     59 H27         6.6820    1.8080   -0.0840 h1        1 MOL      0.042209
     60 N6          6.5320   -0.3490    1.4620 n         1 MOL     -0.235601
     61 C19         6.8440   -1.6960    1.9660 c3        1 MOL      0.177202
     62 C20         6.8610   -2.8660    0.8760 c         1 MOL      0.356256
     63 O10         7.3230   -3.9520    1.2320 o         1 MOL     -0.505937
     64 C21         5.8980   -2.0780    3.1120 c3        1 MOL     -0.356540
     65 C22         4.4060   -2.0440    2.7350 c         1 MOL      0.780039
     66 O11         4.0880   -2.3070    1.5510 o         1 MOL     -0.708039
     67 O12         3.5520   -1.7430    3.5900 o         1 MOL     -0.708039
     68 H28         5.8300   -0.1360    0.7700 hn        1 MOL     -0.016398
     69 H29         7.8570   -1.6180    2.3620 h1        1 MOL      0.048419
     70 H30         6.0850   -1.3950    3.9310 hc        1 MOL      0.104927
     71 H31         6.1560   -3.1090    3.3630 hc        1 MOL      0.104927
     72 N7          6.4850   -2.5480   -0.4050 n         1 MOL     -0.223622
     73 C23         6.7090   -3.4670   -1.5650 c3        1 MOL     -0.232025
     74 C24         5.4180   -4.2220   -1.8980 c         1 MOL      0.561067
     75 O13         5.4210   -5.0360   -2.8150 o         1 MOL     -0.571786
     76 H32         5.9570   -1.6980   -0.4990 hn        1 MOL      0.249816
     77 H33         7.5430   -4.1530   -1.5290 h1        1 MOL      0.126286
     78 H34         6.6640   -2.8390   -2.4620 h1        1 MOL      0.126286
     79 N8          4.3040   -3.9970   -1.1260 n         1 MOL     -0.130191
     80 C25         2.9540   -4.5300   -1.3660 c3        1 MOL     -0.238002
     81 C26         1.8400   -3.4810   -1.2510 c         1 MOL      0.565150
     82 O14         1.9650   -2.3480   -0.7100 o         1 MOL     -0.648550
     83 C27         2.6510   -5.6290   -0.2740 c3        1 MOL      0.461509
     84 C28         3.5280   -6.8350   -0.5010 c3        1 MOL     -0.442626
     85 O15         3.0090   -4.9530    0.9830 oh        1 MOL     -0.609762
     86 H35         4.4850   -3.3990   -0.3370 hn        1 MOL      0.157669
     87 H36         2.7990   -4.8900   -2.3840 h1        1 MOL      0.108312
     88 H37         1.6110   -5.9320   -0.2410 h1        1 MOL      0.004592
     89 H38         3.4750   -4.1370    0.7870 ho        1 MOL      0.378941
     90 H39         3.5410   -7.0540   -1.5730 hc        1 MOL      0.116866
     91 H40         4.5610   -6.6640   -0.2270 hc        1 MOL      0.116866
     92 H41         3.0480   -7.6380    0.0500 hc        1 MOL      0.116866
     93 N9          0.6340   -3.7820   -1.8210 n         1 MOL     -0.580642
     94 C29        -0.4430   -2.7630   -2.0300 c3        1 MOL      0.080223
     95 C30        -1.6590   -3.3040   -1.3360 c         1 MOL      0.442234
     96 O16        -1.9460   -4.5190   -1.3260 o         1 MOL     -0.561489
     97 C31        -0.8060   -2.6080   -3.5000 c3        1 MOL      0.261531
     98 C32         0.4540   -1.9310   -4.2680 c3        1 MOL     -0.207230
     99 C33        -2.0420   -1.7340   -3.7730 c3        1 MOL     -0.394825
    100 C34         0.5330   -2.1210   -5.7870 c3        1 MOL     -0.094392
    101 H42         0.4900   -4.6940   -2.2320 hn        1 MOL      0.296675
    102 H43        -0.1320   -1.7950   -1.6570 h1        1 MOL      0.126822
    103 H44        -1.0160   -3.6020   -3.8980 hc        1 MOL     -0.013210
    104 H45         1.4190   -2.2280   -3.8570 hc        1 MOL      0.110699
    105 H46         0.3650   -0.8680   -4.0720 hc        1 MOL      0.110699
    106 H47        -2.8680   -2.3660   -3.4400 hc        1 MOL      0.071594
    107 H48        -2.0220   -0.7350   -3.3410 hc        1 MOL      0.071594
    108 H49        -2.1490   -1.7280   -4.8640 hc        1 MOL      0.071594
    109 H50         1.4470   -1.6670   -6.1720 hc        1 MOL      0.028029
    110 H51         0.6470   -3.1670   -6.1080 hc        1 MOL      0.028029
    111 H52        -0.2900   -1.6880   -6.3610 hc        1 MOL      0.028029
    112 N10        -2.4510   -2.4020   -0.7680 n         1 MOL     -0.087549
    113 C35        -3.7970   -2.7580   -0.2260 c3        1 MOL      0.110969
    114 C36        -5.0530   -2.2110   -0.9060 c         1 MOL      0.298459
    115 O17        -4.9800   -1.3110   -1.7110 o         1 MOL     -0.293314
    116 C37        -3.8810   -2.4790    1.2170 c3        1 MOL     -0.045822
    117 C38        -2.5890   -2.7760    2.0450 c3        1 MOL     -0.353412
    118 O18        -4.0780   -1.1150    1.3420 oh        1 MOL     -0.344369
    119 H53        -2.0390   -1.5280   -0.4950 hn        1 MOL      0.195244
    120 H54        -4.0430   -3.8150   -0.3400 h1        1 MOL      0.048670
    121 H55        -4.7170   -2.9680    1.7070 h1        1 MOL      0.039355
    122 H56        -3.6370   -0.8270    2.1440 ho        1 MOL      0.357309
    123 H57        -1.7150   -2.1880    1.7440 hc        1 MOL      0.113662
    124 H58        -2.7300   -2.6800    3.1160 hc        1 MOL      0.113662
    125 H59        -2.3140   -3.8070    1.8080 hc        1 MOL      0.113662
    126 N11        -6.2100   -2.7590   -0.6210 n         1 MOL     -0.314303
    127 C39        -7.5780   -2.1850   -0.8660 c3        1 MOL     -0.118261
    128 C40        -7.5170   -0.7200   -0.4840 c         1 MOL      0.345212
    129 O19        -7.9380    0.1020   -1.2850 o         1 MOL     -0.485242
    130 C41        -8.6100   -2.8900    0.0640 c3        1 MOL      0.296940
    131 C42        -8.8260   -4.3330   -0.3150 c3        1 MOL     -0.305630
    132 O20        -8.2050   -2.8240    1.4130 oh        1 MOL     -0.618601
    133 H60        -6.2870   -3.5090    0.0420 hn        1 MOL      0.239640
    134 H61        -7.9340   -2.1530   -1.9020 h1        1 MOL      0.139618
    135 H62        -9.6360   -2.5740   -0.1180 h1        1 MOL      0.076785
    136 H63        -7.7130   -3.6410    1.4690 ho        1 MOL      0.391017
    137 H64        -9.6000   -4.8010    0.2810 hc        1 MOL      0.087020
    138 H65        -9.1390   -4.2910   -1.3650 hc        1 MOL      0.087020
    139 H66        -7.9340   -4.9580   -0.2630 hc        1 MOL      0.087020
    140 N12        -6.8860   -0.3600    0.6420 n         1 MOL     -0.135591
    141 C43        -6.8140    1.0960    1.1430 c3        1 MOL     -0.158003
    142 C44        -5.8330    1.9290    0.3420 c         1 MOL      0.412345
    143 O21        -6.1030    3.1330    0.1280 o         1 MOL     -0.495278
    144 C45        -6.4340    1.1450    2.6170 c3        1 MOL     -0.135434
    145 C46        -7.5590    0.5290    3.5290 c3        1 MOL      0.106386
    146 C47        -7.3660    0.7880    5.0420 c3        1 MOL     -0.061624
    147 C48        -8.5170    0.1670    5.8990 c3        1 MOL      0.053892
    148 N13        -9.7820    0.9150    5.7720 n4        1 MOL     -0.342001
    149 H67        -6.4100   -1.0590    1.1930 hn        1 MOL      0.180101
    150 H68        -7.7600    1.6320    1.0850 h1        1 MOL      0.126564
    151 H69        -6.3080    2.2010    2.8290 hc        1 MOL      0.045324
    152 H70        -5.4570    0.6650    2.6360 hc        1 MOL      0.045324
    153 H71        -7.6520   -0.5530    3.4650 hc        1 MOL     -0.002327
    154 H72        -8.5160    0.9140    3.1640 hc        1 MOL     -0.002327
    155 H73        -7.3630    1.8650    5.2010 hc        1 MOL      0.051118
    156 H74        -6.4290    0.3600    5.3880 hc        1 MOL      0.051118
    157 H75        -8.1920    0.1140    6.9430 hx        1 MOL      0.079135
    158 H76        -8.6780   -0.8750    5.6170 hx        1 MOL      0.079135
    159 H77       -10.3220    0.7950    4.9250 hn        1 MOL      0.296310
    160 H78       -10.4300    0.6260    6.4960 hn        1 MOL      0.296310
    161 H79        -9.6630    1.9030    5.9160 hn        1 MOL      0.296310
    162 N14        -4.6590    1.3830    0.0360 n         1 MOL     -0.064964
    163 C49        -3.7810    2.2060   -0.7800 c3        1 MOL     -0.048194
    164 C50        -4.2230    2.3430   -2.2300 c         1 MOL      0.321079
    165 O22        -4.3120    3.4450   -2.8070 o         1 MOL     -0.530837
    166 C51        -2.4050    1.4400   -0.8060 c3        1 MOL     -0.060253
    167 C52        -1.7490    1.5350    0.5900 c3        1 MOL     -0.109305
    168 C53        -0.3980    0.8430    0.5050 c         1 MOL      0.783940
    169 O23        -0.3570   -0.3520    0.1990 o         1 MOL     -0.774011
    170 O24         0.6030    1.4990    0.9170 o         1 MOL     -0.774011
    171 H80        -4.4130    0.4720    0.3960 hn        1 MOL      0.158394
    172 H81        -3.6990    3.2110   -0.3860 h1        1 MOL      0.071729
    173 H82        -1.7230    1.9310   -1.4960 hc        1 MOL      0.060711
    174 H83        -2.6100    0.3870   -1.0210 hc        1 MOL      0.060711
    175 H84        -2.3310    1.0300    1.3540 hc        1 MOL     -0.026259
    176 H85        -1.6310    2.5930    0.8500 hc        1 MOL     -0.026259
    177 N15        -4.8100    1.2710   -2.8230 n         1 MOL      0.039757
    178 C54        -5.4740    1.2520   -4.1610 c3        1 MOL     -0.308556
    179 H86        -4.7980    0.8110   -4.8950 h1        1 MOL      0.114045
    180 H87        -6.3870    0.6580   -4.1070 h1        1 MOL      0.114045
    181 H88        -5.7190    2.2700   -4.4610 h1        1 MOL      0.114045
    182 H89        -4.8440    0.4030   -2.3070 hn        1 MOL      0.019080
    183 Ca1         1.9720   -0.6880    1.5790 Ca        1 MOL      1.772856
    184 O25         1.3610   -3.1840    2.2460 oh        1 MOL     -0.813934
    185 H90         1.9160   -3.7840    1.7530 ho        1 MOL      0.382079
    186 H91         0.9440   -3.7200    2.9200 ho        1 MOL      0.382079
    187 O26         0.0860   -0.0650    3.5620 oh        1 MOL     -0.813934
    188 H92        -0.8670   -0.1790    3.5350 ho        1 MOL      0.382079
    189 H93         0.2140    0.8220    3.9090 ho        1 MOL      0.382079
@<TRIPOS>BOND
     1    1    2 1   
     2    1    4 1   
     3    1    5 1   
     4    1    6 1   
     5    2    3 2   
     6    2    7 1   
     7    7    8 1   
     8    7   15 1   
     9    8    9 1   
    10    8   11 1   
    11    8   16 1   
    12    9   10 2   
    13    9   19 1   
    14   11   12 1   
    15   11   17 1   
    16   11   18 1   
    17   12   13 1   
    18   12   14 1   
    19   19   20 1   
    20   19   28 1   
    21   20   21 1   
    22   20   23 1   
    23   20   29 1   
    24   21   22 2   
    25   21   41 1   
    26   23   24 1   
    27   23   30 1   
    28   23   31 1   
    29   24   25 1   
    30   24   32 1   
    31   24   33 1   
    32   25   26 1   
    33   25   34 1   
    34   25   35 1   
    35   26   27 1   
    36   26   36 1   
    37   26   37 1   
    38   27   38 1   
    39   27   39 1   
    40   27   40 1   
    41   41   42 1   
    42   41   49 1   
    43   42   43 1   
    44   42   45 1   
    45   42   50 1   
    46   43   44 2   
    47   43   53 1   
    48   45   46 1   
    49   45   51 1   
    50   45   52 1   
    51   46   47 1   
    52   46   48 1   
    53   53   54 1   
    54   53   57 1   
    55   54   55 1   
    56   54   58 1   
    57   54   59 1   
    58   55   56 2   
    59   55   60 1   
    60   60   61 1   
    61   60   68 1   
    62   61   62 1   
    63   61   64 1   
    64   61   69 1   
    65   62   63 2   
    66   62   72 1   
    67   64   65 1   
    68   64   70 1   
    69   64   71 1   
    70   65   66 1   
    71   65   67 1   
    72   72   73 1   
    73   72   76 1   
    74   73   74 1   
    75   73   77 1   
    76   73   78 1   
    77   74   75 2   
    78   74   79 1   
    79   79   80 1   
    80   79   86 1   
    81   80   81 1   
    82   80   83 1   
    83   80   87 1   
    84   81   82 2   
    85   81   93 1   
    86   83   84 1   
    87   83   85 1   
    88   83   88 1   
    89   84   90 1   
    90   84   91 1   
    91   84   92 1   
    92   85   89 1   
    93   93   94 1   
    94   93  101 1   
    95   94   95 1   
    96   94   97 1   
    97   94  102 1   
    98   95   96 2   
    99   95  112 1   
   100   97   98 1   
   101   97   99 1   
   102   97  103 1   
   103   98  100 1   
   104   98  104 1   
   105   98  105 1   
   106   99  106 1   
   107   99  107 1   
   108   99  108 1   
   109  100  109 1   
   110  100  110 1   
   111  100  111 1   
   112  112  113 1   
   113  112  119 1   
   114  113  114 1   
   115  113  116 1   
   116  113  120 1   
   117  114  115 2   
   118  114  126 1   
   119  116  117 1   
   120  116  118 1   
   121  116  121 1   
   122  117  123 1   
   123  117  124 1   
   124  117  125 1   
   125  118  122 1   
   126  126  127 1   
   127  126  133 1   
   128  127  128 1   
   129  127  130 1   
   130  127  134 1   
   131  128  129 2   
   132  128  140 1   
   133  130  131 1   
   134  130  132 1   
   135  130  135 1   
   136  131  137 1   
   137  131  138 1   
   138  131  139 1   
   139  132  136 1   
   140  140  141 1   
   141  140  149 1   
   142  141  142 1   
   143  141  144 1   
   144  141  150 1   
   145  142  143 2   
   146  142  162 1   
   147  144  145 1   
   148  144  151 1   
   149  144  152 1   
   150  145  146 1   
   151  145  153 1   
   152  145  154 1   
   153  146  147 1   
   154  146  155 1   
   155  146  156 1   
   156  147  148 1   
   157  147  157 1   
   158  147  158 1   
   159  148  159 1   
   160  148  160 1   
   161  148  161 1   
   162  162  163 1   
   163  162  171 1   
   164  163  164 1   
   165  163  166 1   
   166  163  172 1   
   167  164  165 2   
   168  164  177 1   
   169  166  167 1   
   170  166  173 1   
   171  166  174 1   
   172  167  168 1   
   173  167  175 1   
   174  167  176 1   
   175  168  169 1   
   176  168  170 1   
   177  177  178 1   
   178  177  182 1   
   179  178  179 1   
   180  178  180 1   
   181  178  181 1   
   182  184  185 1   
   183  184  186 1   
   184  187  188 1   
   185  187  189 1   
@<TRIPOS>SUBSTRUCTURE
     1 MOL         1 TEMP              0 ****  ****    0 ROOT
