@<TRIPOS>MOLECULE
MOL
  169   169     1     0     0
SMALL
resp


@<TRIPOS>ATOM
      1 C1         -0.0590   -2.6260    6.1350 c3        1 MOL     -0.434858
      2 C2          0.4650   -2.5040    4.6920 c         1 MOL      0.792587
      3 O1         -0.0860   -3.2110    3.8730 o         1 MOL     -0.585749
      4 H1         -0.5020   -3.6120    6.2780 hc        1 MOL      0.106435
      5 H2          0.7680   -2.4950    6.8340 hc        1 MOL      0.106435
      6 H3         -0.8120   -1.8590    6.3160 hc        1 MOL      0.106435
      7 N1          1.6230   -1.8510    4.3120 n         1 MOL     -0.683686
      8 C3          2.0690   -1.6750    2.9570 c3        1 MOL      0.188252
      9 C4          2.4280   -3.0940    2.4180 c         1 MOL      0.627514
     10 O2          3.1640   -3.8810    3.0840 o         1 MOL     -0.596703
     11 C5          3.1420   -0.6010    2.9260 c3        1 MOL     -0.284012
     12 C6          3.7610   -0.4580    1.5600 c         1 MOL      0.729133
     13 O3          3.3150   -1.1070    0.5420 o         1 MOL     -0.696677
     14 O4          4.6560    0.4360    1.4390 o         1 MOL     -0.696677
     15 H4          2.1090   -1.4640    5.1020 hn        1 MOL      0.320842
     16 H5          1.2820   -1.3850    2.2590 h1        1 MOL      0.027486
     17 H6          3.8730   -0.7850    3.7220 hc        1 MOL      0.076634
     18 H7          2.7010    0.3770    3.1690 hc        1 MOL      0.076634
     19 N2          1.9480   -3.5090    1.1860 n         1 MOL     -0.326141
     20 C7          2.1080   -4.8250    0.5770 c3        1 MOL      0.246527
     21 C8          3.2520   -4.8320   -0.3900 c         1 MOL      0.397526
     22 O5          4.1570   -5.6220   -0.1960 o         1 MOL     -0.575171
     23 C9          0.8560   -5.3850   -0.0070 c3        1 MOL     -0.325924
     24 H8          1.3580   -2.8230    0.7400 hn        1 MOL      0.159351
     25 H9          2.4120   -5.4000    1.4500 h1        1 MOL      0.023484
     26 H10         0.0700   -5.2540    0.7310 hc        1 MOL      0.079979
     27 H11         0.5550   -5.0300   -0.9900 hc        1 MOL      0.079979
     28 H12         1.0320   -6.4480   -0.1530 hc        1 MOL      0.079979
     29 N3          3.3410   -3.9090   -1.3890 n         1 MOL     -0.134242
     30 C10         4.4790   -3.8230   -2.3400 c3        1 MOL     -0.333179
     31 C11         5.7250   -3.2050   -1.6740 c         1 MOL      0.590260
     32 O6          6.7730   -3.2590   -2.3080 o         1 MOL     -0.604306
     33 C12         4.0600   -3.1810   -3.6310 c3        1 MOL      0.189987
     34 C13         3.6710   -1.7070   -3.6730 c         1 MOL      0.661388
     35 O7          3.8120   -0.9990   -2.6340 o         1 MOL     -0.706209
     36 O8          3.2760   -1.1740   -4.7090 o         1 MOL     -0.706209
     37 H13         2.5090   -3.3350   -1.3860 hn        1 MOL      0.114367
     38 H14         4.7110   -4.8540   -2.5890 h1        1 MOL      0.144783
     39 H15         3.2290   -3.6990   -4.0910 hc        1 MOL     -0.030518
     40 H16         4.7550   -3.3020   -4.4620 hc        1 MOL     -0.030518
     41 N4          5.6760   -2.6470   -0.4870 n         1 MOL     -0.193121
     42 C14         6.7620   -2.0400    0.2930 c3        1 MOL     -0.238597
     43 C15         7.2320   -0.7750   -0.2850 c         1 MOL      0.586450
     44 O9          8.3350   -0.3940    0.1690 o         1 MOL     -0.596893
     45 H17         4.7520   -2.5410   -0.0840 hn        1 MOL      0.183994
     46 H18         7.6170   -2.6990    0.3760 h1        1 MOL      0.118398
     47 H19         6.2340   -1.9900    1.2490 h1        1 MOL      0.118398
     48 N5          6.4590   -0.0910   -1.1140 n         1 MOL     -0.257362
     49 C16         6.8770    1.2070   -1.8300 c3        1 MOL      0.024696
     50 C17         7.2140    2.3340   -0.8610 c         1 MOL      0.469749
     51 O10         8.0800    3.1720   -1.1660 o         1 MOL     -0.578343
     52 C18         5.7950    1.6530   -2.8350 c3        1 MOL     -0.200159
     53 C19         4.6720    2.4930   -2.2960 c         1 MOL      0.473986
     54 N6          4.6450    3.8000   -2.5270 n         1 MOL     -0.629666
     55 O11         3.8820    2.0640   -1.4360 o         1 MOL     -0.618755
     56 H20         5.5260   -0.3840   -1.3330 hn        1 MOL      0.128317
     57 H21         7.8240    1.1000   -2.3640 h1        1 MOL      0.086342
     58 H22         5.3910    0.7970   -3.3710 hc        1 MOL      0.106435
     59 H23         6.2860    2.1350   -3.6860 hc        1 MOL      0.106435
     60 H24         5.4390    4.3250   -2.8510 hn        1 MOL      0.333263
     61 H25         3.8060    4.2580   -2.2100 hn        1 MOL      0.333263
     62 N7          6.5710    2.4800    0.3020 n         1 MOL     -0.230117
     63 C20         6.4760    3.7690    1.0810 c3        1 MOL      0.007232
     64 C21         5.0710    4.3510    1.2890 c         1 MOL      0.394181
     65 O12         5.0200    5.4600    1.9060 o         1 MOL     -0.592437
     66 H26         5.8750    1.8070    0.5920 hn        1 MOL      0.201513
     67 H27         7.0260    4.5460    0.5510 h1        1 MOL      0.062048
     68 H28         7.0180    3.6610    2.0170 h1        1 MOL      0.062048
     69 N8          3.9810    3.6920    0.9070 n         1 MOL     -0.072274
     70 C22         2.6430    4.0710    1.2130 c3        1 MOL     -0.058111
     71 C23         1.7540    2.8120    1.4510 c         1 MOL      0.253082
     72 O13         2.0030    1.7390    0.8280 o         1 MOL     -0.345010
     73 C24         1.9220    4.8940    0.0650 c3        1 MOL      0.405118
     74 C25         2.4270    6.3110   -0.0360 c3        1 MOL     -0.390170
     75 O14         1.9530    4.2220   -1.1950 oh        1 MOL     -0.632145
     76 H29         4.1460    2.8570    0.3650 hn        1 MOL      0.153118
     77 H30         2.7240    4.6270    2.1400 h1        1 MOL      0.077992
     78 H31         0.8740    4.8890    0.3520 h1        1 MOL      0.003741
     79 H32         1.3230    3.5010   -1.2460 ho        1 MOL      0.441942
     80 H33         2.6550    6.6230    0.9840 hc        1 MOL      0.093121
     81 H34         3.2630    6.3580   -0.7200 hc        1 MOL      0.093121
     82 H35         1.6630    6.9850   -0.4290 hc        1 MOL      0.093121
     83 N9          0.6120    3.0460    2.1750 n         1 MOL     -0.309772
     84 C26        -0.5710    2.1310    2.1090 c3        1 MOL      0.068855
     85 C27        -1.4340    2.6010    0.9430 c         1 MOL      0.268531
     86 O15        -1.6650    3.7990    0.7650 o         1 MOL     -0.554254
     87 C28        -1.4290    2.1500    3.3930 c3        1 MOL      0.065924
     88 C29        -0.6540    1.8600    4.6800 c3        1 MOL      0.212368
     89 C30        -2.6450    1.2020    3.2180 c3        1 MOL     -0.138758
     90 C31        -1.3730    2.3430    5.8910 c3        1 MOL     -0.325220
     91 H36         0.4840    3.9340    2.6360 hn        1 MOL      0.235932
     92 H37        -0.2670    1.1100    1.9040 h1        1 MOL      0.060286
     93 H38        -1.8820    3.1390    3.5060 hc        1 MOL      0.018188
     94 H39         0.3740    2.1980    4.5750 hc        1 MOL     -0.051052
     95 H40        -0.4810    0.7840    4.6840 hc        1 MOL     -0.051052
     96 H41        -2.9690    0.9690    4.2320 hc        1 MOL      0.008558
     97 H42        -3.4540    1.6800    2.6660 hc        1 MOL      0.008558
     98 H43        -2.5790    0.2420    2.6910 hc        1 MOL      0.008558
     99 H44        -1.8420    3.3080    5.6830 hc        1 MOL      0.068523
    100 H45        -2.0810    1.5980    6.2700 hc        1 MOL      0.068523
    101 H46        -0.7110    2.4500    6.7480 hc        1 MOL      0.068523
    102 N10        -1.9300    1.6510    0.1730 n         1 MOL     -0.028033
    103 C32        -2.8100    1.9670   -0.9710 c3        1 MOL      0.075504
    104 C33        -4.2150    1.5230   -0.6030 c         1 MOL      0.577406
    105 O16        -4.2740    0.5480    0.1430 o         1 MOL     -0.491488
    106 C34        -2.2280    1.3830   -2.2660 c3        1 MOL     -0.361922
    107 C35        -0.6260    1.5420   -2.3630 c         1 MOL      0.833416
    108 O17        -0.0270    0.6460   -2.9410 o         1 MOL     -0.774330
    109 O18         0.0530    2.3310   -1.7070 o         1 MOL     -0.774330
    110 H47        -1.7210    0.6770    0.3390 hn        1 MOL      0.225528
    111 H48        -2.9080    3.0590   -1.0410 h1        1 MOL      0.064302
    112 H49        -2.7320    1.7730   -3.1490 hc        1 MOL      0.103651
    113 H50        -2.3360    0.2960   -2.2430 hc        1 MOL      0.103651
    114 N11        -5.2520    1.9960   -1.2460 n         1 MOL     -0.893368
    115 C36        -6.6340    1.5630   -0.8450 c3        1 MOL      0.832826
    116 C37        -6.9170    0.0850   -1.0720 c         1 MOL      0.091397
    117 O19        -7.5750   -0.5060   -0.2370 o         1 MOL     -0.444982
    118 C38        -7.7350    2.4950   -1.3560 c3        1 MOL     -0.372638
    119 C39        -9.1610    2.1940   -0.8820 ca        1 MOL      0.233189
    120 C40        -9.5610    1.8520    0.4650 ca        1 MOL     -0.285694
    121 C41       -10.2270    2.1980   -1.8760 ca        1 MOL     -0.285694
    122 C42       -10.8610    1.6200    0.8550 ca        1 MOL     -0.026306
    123 C43       -11.5450    1.8080   -1.4440 ca        1 MOL     -0.026306
    124 C44       -11.8760    1.6330   -0.1150 ca        1 MOL     -0.169410
    125 H51        -5.1080    2.6890   -1.9590 hn        1 MOL      0.364879
    126 H52        -6.7830    1.6630    0.2250 h1        1 MOL     -0.044010
    127 H53        -7.8170    2.3380   -2.4350 hc        1 MOL      0.077445
    128 H54        -7.4120    3.5070   -1.0900 hc        1 MOL      0.077445
    129 H55        -8.8170    1.7930    1.2440 ha        1 MOL      0.146270
    130 H56       -10.0190    2.4720   -2.8960 ha        1 MOL      0.146270
    131 H57       -11.1370    1.2280    1.8210 ha        1 MOL      0.095195
    132 H58       -12.3090    1.8360   -2.1990 ha        1 MOL      0.095195
    133 H59       -12.9110    1.3870    0.0880 ha        1 MOL      0.105545
    134 N12        -6.3200   -0.6160   -2.0320 n         1 MOL      0.052795
    135 C45        -6.4030   -2.0450   -2.1010 c3        1 MOL      0.172569
    136 C46        -5.6920   -2.7960   -1.0630 c         1 MOL      0.201566
    137 O20        -6.1810   -3.8330   -0.6690 o         1 MOL     -0.485191
    138 C47        -5.7810   -2.3880   -3.5550 c3        1 MOL     -0.106797
    139 C48        -6.2340   -1.1220   -4.3380 c3        1 MOL     -0.099166
    140 C49        -5.9690    0.0050   -3.3110 c3        1 MOL      0.033418
    141 H60        -7.4520   -2.3400   -2.1310 h1        1 MOL      0.021711
    142 H61        -4.6980   -2.3700   -3.5130 hc        1 MOL      0.061680
    143 H62        -6.2600   -3.3020   -3.9110 hc        1 MOL      0.061680
    144 H63        -5.5650   -1.0100   -5.1890 hc        1 MOL      0.038863
    145 H64        -7.2760   -1.1630   -4.6070 hc        1 MOL      0.038863
    146 H65        -4.9190    0.3040   -3.3000 h1        1 MOL      0.002039
    147 H66        -6.6260    0.8160   -3.5940 h1        1 MOL      0.002039
    148 N13        -4.5320   -2.3700   -0.6190 n         1 MOL     -0.123152
    149 C50        -3.7220   -2.9980    0.4250 c3        1 MOL     -0.072765
    150 C51        -4.3590   -2.8850    1.8360 c         1 MOL      0.434739
    151 O21        -4.3500   -3.8370    2.6000 o         1 MOL     -0.521380
    152 C52        -2.3010   -2.2940    0.5630 c3        1 MOL      0.068237
    153 C53        -1.5000   -2.4450   -0.7070 c3        1 MOL     -0.051521
    154 C54        -0.1820   -1.7180   -0.7210 c         1 MOL      0.653520
    155 O22        -0.0100   -0.6500   -0.0740 o         1 MOL     -0.704415
    156 O23         0.8360   -2.1000   -1.4050 o         1 MOL     -0.704415
    157 H67        -4.2760   -1.4520   -0.9520 hn        1 MOL      0.146947
    158 H68        -3.4500   -4.0010    0.1110 h1        1 MOL      0.100595
    159 H69        -1.7330   -2.5990    1.4430 hc        1 MOL      0.007591
    160 H70        -2.4980   -1.2310    0.6880 hc        1 MOL      0.007591
    161 H71        -2.0860   -2.1180   -1.5740 hc        1 MOL      0.001347
    162 H72        -1.2040   -3.4740   -0.9030 hc        1 MOL      0.001347
    163 N14        -5.0620   -1.7120    2.0750 n         1 MOL     -0.027435
    164 C55        -5.9490   -1.5230    3.2470 c3        1 MOL     -0.329981
    165 H73        -6.4350   -2.4670    3.4910 h1        1 MOL      0.113739
    166 H74        -5.3590   -1.1870    4.1000 h1        1 MOL      0.113739
    167 H75        -6.7080   -0.7760    3.0120 h1        1 MOL      0.113739
    168 H76        -5.0060   -0.9860    1.3740 hn        1 MOL      0.101373
    169 Ca1         2.0360    0.1320   -1.4250 Ca        1 MOL      1.719503
@<TRIPOS>BOND
     1    1    2 1   
     2    1    4 1   
     3    1    5 1   
     4    1    6 1   
     5    2    3 2   
     6    2    7 1   
     7    7    8 1   
     8    7   15 1   
     9    8    9 1   
    10    8   11 1   
    11    8   16 1   
    12    9   10 2   
    13    9   19 1   
    14   11   12 1   
    15   11   17 1   
    16   11   18 1   
    17   12   13 1   
    18   12   14 1   
    19   19   20 1   
    20   19   24 1   
    21   20   21 1   
    22   20   23 1   
    23   20   25 1   
    24   21   22 2   
    25   21   29 1   
    26   23   26 1   
    27   23   27 1   
    28   23   28 1   
    29   29   30 1   
    30   29   37 1   
    31   30   31 1   
    32   30   33 1   
    33   30   38 1   
    34   31   32 2   
    35   31   41 1   
    36   33   34 1   
    37   33   39 1   
    38   33   40 1   
    39   34   35 1   
    40   34   36 1   
    41   41   42 1   
    42   41   45 1   
    43   42   43 1   
    44   42   46 1   
    45   42   47 1   
    46   43   44 2   
    47   43   48 1   
    48   48   49 1   
    49   48   56 1   
    50   49   50 1   
    51   49   52 1   
    52   49   57 1   
    53   50   51 2   
    54   50   62 1   
    55   52   53 1   
    56   52   58 1   
    57   52   59 1   
    58   53   54 1   
    59   53   55 2   
    60   54   60 1   
    61   54   61 1   
    62   62   63 1   
    63   62   66 1   
    64   63   64 1   
    65   63   67 1   
    66   63   68 1   
    67   64   65 2   
    68   64   69 1   
    69   69   70 1   
    70   69   76 1   
    71   70   71 1   
    72   70   73 1   
    73   70   77 1   
    74   71   72 2   
    75   71   83 1   
    76   73   74 1   
    77   73   75 1   
    78   73   78 1   
    79   74   80 1   
    80   74   81 1   
    81   74   82 1   
    82   75   79 1   
    83   83   84 1   
    84   83   91 1   
    85   84   85 1   
    86   84   87 1   
    87   84   92 1   
    88   85   86 2   
    89   85  102 1   
    90   87   88 1   
    91   87   89 1   
    92   87   93 1   
    93   88   90 1   
    94   88   94 1   
    95   88   95 1   
    96   89   96 1   
    97   89   97 1   
    98   89   98 1   
    99   90   99 1   
   100   90  100 1   
   101   90  101 1   
   102  102  103 1   
   103  102  110 1   
   104  103  104 1   
   105  103  106 1   
   106  103  111 1   
   107  104  105 2   
   108  104  114 1   
   109  106  107 1   
   110  106  112 1   
   111  106  113 1   
   112  107  108 1   
   113  107  109 1   
   114  114  115 1   
   115  114  125 1   
   116  115  116 1   
   117  115  118 1   
   118  115  126 1   
   119  116  117 2   
   120  116  134 1   
   121  118  119 1   
   122  118  127 1   
   123  118  128 1   
   124  119  120 ar  
   125  119  121 ar  
   126  120  122 ar  
   127  120  129 1   
   128  121  123 ar  
   129  121  130 1   
   130  122  124 ar  
   131  122  131 1   
   132  123  124 ar  
   133  123  132 1   
   134  124  133 1   
   135  134  135 1   
   136  134  140 1   
   137  135  136 1   
   138  135  138 1   
   139  135  141 1   
   140  136  137 2   
   141  136  148 1   
   142  138  139 1   
   143  138  142 1   
   144  138  143 1   
   145  139  140 1   
   146  139  144 1   
   147  139  145 1   
   148  140  146 1   
   149  140  147 1   
   150  148  149 1   
   151  148  157 1   
   152  149  150 1   
   153  149  152 1   
   154  149  158 1   
   155  150  151 2   
   156  150  163 1   
   157  152  153 1   
   158  152  159 1   
   159  152  160 1   
   160  153  154 1   
   161  153  161 1   
   162  153  162 1   
   163  154  155 1   
   164  154  156 1   
   165  163  164 1   
   166  163  168 1   
   167  164  165 1   
   168  164  166 1   
   169  164  167 1   
@<TRIPOS>SUBSTRUCTURE
     1 MOL         1 TEMP              0 ****  ****    0 ROOT
