@<TRIPOS>MOLECULE
MOL
  189   185     1     0     0
SMALL
resp


@<TRIPOS>ATOM
      1 C1          0.0270    2.2790    5.6220 c3        1 MOL     -0.490244
      2 C2         -0.4530    2.2060    4.2120 c         1 MOL      0.787312
      3 O1          0.3710    2.4460    3.3400 o         1 MOL     -0.620171
      4 H1         -0.8240    2.4100    6.2890 hc        1 MOL      0.127340
      5 H2          0.5490    1.3570    5.8770 hc        1 MOL      0.127340
      6 H3          0.7070    3.1240    5.7300 hc        1 MOL      0.127340
      7 N1         -1.6990    1.8300    3.8330 n         1 MOL     -0.637559
      8 C3         -2.2280    1.5830    2.4660 c3        1 MOL      0.342779
      9 C4         -2.8230    2.7870    1.8250 c         1 MOL      0.137526
     10 O2         -3.9270    3.2130    2.1920 o         1 MOL     -0.533362
     11 C5         -3.1840    0.3300    2.4990 c3        1 MOL     -0.378594
     12 C6         -3.8470    0.0450    1.0870 c         1 MOL      1.082274
     13 O3         -3.4260    0.7410    0.1310 o         1 MOL     -0.756968
     14 O4         -4.8770   -0.6460    1.0520 o         1 MOL     -0.756968
     15 H4         -2.3580    1.6120    4.5690 hn        1 MOL      0.304430
     16 H5         -1.3930    1.3000    1.8190 h1        1 MOL      0.022897
     17 H6         -3.9300    0.4760    3.2830 hc        1 MOL      0.063520
     18 H7         -2.5430   -0.5100    2.7680 hc        1 MOL      0.063520
     19 N2         -2.1310    3.4090    0.8440 n         1 MOL      0.091420
     20 C7         -2.3970    4.8210    0.4280 c3        1 MOL     -0.206383
     21 C8         -3.1350    4.9170   -0.9160 c         1 MOL      0.639969
     22 O5         -3.6970    5.9880   -1.1620 o         1 MOL     -0.584989
     23 C9         -1.1750    5.7780    0.6190 c3        1 MOL      0.117245
     24 C10        -0.6950    5.9910    2.0670 c3        1 MOL      0.104911
     25 C11        -1.6000    6.7700    2.9860 c3        1 MOL     -0.024334
     26 C12        -2.6880    5.9140    3.6690 c3        1 MOL      0.310948
     27 N3         -3.4950    6.8580    4.4630 n4        1 MOL     -0.471931
     28 H8         -1.2440    2.9780    0.5960 hn        1 MOL      0.236448
     29 H9         -3.1470    5.1890    1.1260 h1        1 MOL      0.047434
     30 H10        -1.3300    6.7660    0.2060 hc        1 MOL     -0.022141
     31 H11        -0.3680    5.3700   -0.0010 hc        1 MOL     -0.022141
     32 H12         0.1870    6.6380    2.0190 hc        1 MOL     -0.025718
     33 H13        -0.4610    5.0080    2.4730 hc        1 MOL     -0.025718
     34 H14        -2.0390    7.6580    2.5360 hc        1 MOL     -0.000566
     35 H15        -0.9760    7.1410    3.7990 hc        1 MOL     -0.000566
     36 H16        -2.2640    5.1710    4.3490 hx        1 MOL      0.001118
     37 H17        -3.4160    5.3670    3.0670 hx        1 MOL      0.001118
     38 H18        -2.8600    7.2860    5.1230 hn        1 MOL      0.338538
     39 H19        -3.9890    7.5510    3.9100 hn        1 MOL      0.338538
     40 H20        -4.0690    6.2760    5.0570 hn        1 MOL      0.338538
     41 N4         -3.4120    3.7580   -1.6100 n         1 MOL     -0.341181
     42 C13        -4.2030    3.7470   -2.8870 c3        1 MOL     -0.145830
     43 C14        -5.4130    2.8900   -2.7810 c         1 MOL      0.506083
     44 O6         -6.2260    2.8250   -3.7580 o         1 MOL     -0.521027
     45 C15        -3.3010    3.3470   -4.1230 c3        1 MOL     -0.194108
     46 C16        -2.5740    2.0470   -3.9490 c         1 MOL      0.853212
     47 O7         -1.8580    1.6530   -4.8940 o         1 MOL     -0.726230
     48 O8         -2.5000    1.4050   -2.8990 o         1 MOL     -0.726230
     49 H21        -2.8940    2.9210   -1.3670 hn        1 MOL      0.120557
     50 H22        -4.5040    4.7920   -3.0200 h1        1 MOL      0.134646
     51 H23        -2.5490    4.1430   -4.2230 hc        1 MOL      0.065785
     52 H24        -3.8600    3.2020   -5.0450 hc        1 MOL      0.065785
     53 N5         -5.6750    2.3570   -1.6080 n         1 MOL     -0.210542
     54 C17        -6.9840    1.6860   -1.2310 c3        1 MOL     -0.367296
     55 C18        -7.3190    0.4080   -1.9480 c         1 MOL      0.790093
     56 O9         -8.2200    0.4120   -2.7800 o         1 MOL     -0.568290
     57 H25        -4.9410    2.3140   -0.9150 hn        1 MOL      0.267599
     58 H26        -7.8270    2.3790   -1.3530 h1        1 MOL      0.128175
     59 H27        -6.9300    1.4650   -0.1710 h1        1 MOL      0.128175
     60 N6         -6.6390   -0.6740   -1.5100 n         1 MOL     -0.555744
     61 C19        -6.7980   -2.0680   -2.0550 c3        1 MOL      0.025308
     62 C20        -6.7230   -3.2090   -0.9860 c         1 MOL      0.469273
     63 O10        -6.8980   -4.3880   -1.3130 o         1 MOL     -0.520054
     64 C21        -5.6710   -2.3200   -3.0650 c3        1 MOL     -0.129216
     65 C22        -4.3040   -1.9980   -2.5190 c         1 MOL      0.726736
     66 O11        -3.4830   -1.5090   -3.3250 o         1 MOL     -0.724704
     67 O12        -3.9050   -2.3340   -1.3640 o         1 MOL     -0.724704
     68 H28        -5.9050   -0.6080   -0.8240 hn        1 MOL      0.164264
     69 H29        -7.7760   -2.0860   -2.5410 h1        1 MOL      0.085379
     70 H30        -5.8740   -1.6380   -3.8890 hc        1 MOL      0.066257
     71 H31        -5.7320   -3.3450   -3.4110 hc        1 MOL      0.066257
     72 N7         -6.4140   -2.8640    0.2730 n         1 MOL     -0.432407
     73 C23        -6.4220   -3.8510    1.3410 c3        1 MOL      0.045743
     74 C24        -5.0710   -4.5470    1.5190 c         1 MOL      0.397401
     75 O13        -5.0570   -5.6440    2.1550 o         1 MOL     -0.552587
     76 H32        -6.1060   -1.9300    0.4880 hn        1 MOL      0.369188
     77 H33        -7.1160   -4.6910    1.3550 h1        1 MOL      0.058272
     78 H34        -6.7200   -3.3090    2.2450 h1        1 MOL      0.058272
     79 N8         -3.9830   -3.9170    1.0760 n         1 MOL     -0.035898
     80 C25        -2.6610   -4.4370    1.1920 c3        1 MOL     -0.407418
     81 C26        -1.6070   -3.3600    1.2130 c         1 MOL      0.923922
     82 O14        -1.8050   -2.3180    0.6390 o         1 MOL     -0.730820
     83 C27        -2.3600   -5.4680    0.0690 c3        1 MOL      0.537944
     84 C28        -2.9720   -6.8450    0.1650 c3        1 MOL     -0.510348
     85 O15        -2.6770   -5.0400   -1.2170 oh        1 MOL     -0.664631
     86 H35        -4.1050   -3.0220    0.6150 hn        1 MOL      0.071373
     87 H36        -2.4760   -4.9820    2.1190 h1        1 MOL      0.110549
     88 H37        -1.2950   -5.6880   -0.0370 h1        1 MOL     -0.020837
     89 H38        -3.0410   -4.1460   -1.2050 ho        1 MOL      0.477239
     90 H39        -2.9050   -7.2310    1.1810 hc        1 MOL      0.130302
     91 H40        -4.0060   -6.8370   -0.1660 hc        1 MOL      0.130302
     92 H41        -2.3970   -7.5520   -0.4220 hc        1 MOL      0.130302
     93 N9         -0.4880   -3.7060    1.9430 n         1 MOL     -0.827996
     94 C29         0.7000   -2.7910    2.0350 c3        1 MOL      0.052295
     95 C30         1.8900   -3.3920    1.2680 c         1 MOL      0.507472
     96 O16         2.1650   -4.6030    1.4010 o         1 MOL     -0.550332
     97 C31         1.0970   -2.6950    3.5550 c3        1 MOL      0.184702
     98 C32        -0.1090   -2.3360    4.4700 c3        1 MOL      0.134819
     99 C33         2.1070   -1.5820    3.7760 c3        1 MOL     -0.834380
    100 C34         0.1360   -2.6590    5.9820 c3        1 MOL     -0.003564
    101 H42        -0.5670   -4.4810    2.5860 hn        1 MOL      0.371035
    102 H43         0.4950   -1.7710    1.7040 h1        1 MOL      0.151869
    103 H44         1.5280   -3.6540    3.8250 hc        1 MOL      0.016939
    104 H45        -1.0180   -2.9210    4.3000 hc        1 MOL     -0.020767
    105 H46        -0.5010   -1.3170    4.4560 hc        1 MOL     -0.020767
    106 H47         2.2760   -1.3790    4.8380 hc        1 MOL      0.193589
    107 H48         3.0310   -1.9240    3.3100 hc        1 MOL      0.193589
    108 H49         1.8250   -0.6440    3.3150 hc        1 MOL      0.193589
    109 H50        -0.7640   -2.3540    6.5110 hc        1 MOL     -0.010078
    110 H51         0.2530   -3.7210    6.1940 hc        1 MOL     -0.010078
    111 H52         0.9500   -2.0870    6.4290 hc        1 MOL     -0.010078
    112 N10         2.5450   -2.5630    0.4320 n         1 MOL     -0.210878
    113 C35         3.7200   -2.8640   -0.3940 c3        1 MOL     -0.003429
    114 C36         4.9850   -2.5490    0.3640 c         1 MOL      0.346742
    115 O17         4.9540   -1.8280    1.3770 o         1 MOL     -0.377711
    116 C37         3.6520   -2.2160   -1.7860 c3        1 MOL      0.111707
    117 C38         2.3750   -2.3420   -2.5220 c3        1 MOL     -0.425094
    118 O18         3.8780   -0.7990   -1.6970 oh        1 MOL     -0.386313
    119 H53         2.1060   -1.6590    0.3740 hn        1 MOL      0.342261
    120 H54         3.7080   -3.9450   -0.5290 h1        1 MOL      0.066255
    121 H55         4.4380   -2.6240   -2.4140 h1        1 MOL      0.030953
    122 H56         3.4600   -0.2980   -2.3970 ho        1 MOL      0.358880
    123 H57         2.6220   -1.8570   -3.4660 hc        1 MOL      0.126856
    124 H58         2.1770   -3.3960   -2.7420 hc        1 MOL      0.126856
    125 H59         1.5300   -1.9550   -1.9650 hc        1 MOL      0.126856
    126 N11         6.1460   -2.8150   -0.2250 n         1 MOL     -0.172104
    127 C39         7.3810   -2.2150    0.2870 c3        1 MOL     -0.407943
    128 C40         7.4970   -0.7260    0.0390 c         1 MOL      0.478813
    129 O19         7.9800    0.0300    0.8920 o         1 MOL     -0.481352
    130 C41         8.6040   -2.8950   -0.3110 c3        1 MOL      0.436597
    131 C42         8.8150   -4.3560   -0.0690 c3        1 MOL     -0.353518
    132 O20         8.6040   -2.7750   -1.7360 oh        1 MOL     -0.627113
    133 H60         6.1360   -3.4980   -0.9790 hn        1 MOL      0.263255
    134 H61         7.3680   -2.4200    1.3600 h1        1 MOL      0.216688
    135 H62         9.5120   -2.3830   -0.0000 h1        1 MOL      0.016997
    136 H63         9.4640   -2.4100   -1.9610 ho        1 MOL      0.380602
    137 H64         7.9460   -4.9080   -0.4290 hc        1 MOL      0.095682
    138 H65         9.7160   -4.7610   -0.5370 hc        1 MOL      0.095682
    139 H66         8.8580   -4.4550    1.0090 hc        1 MOL      0.095682
    140 N12         6.9540   -0.1550   -1.0510 n         1 MOL     -0.369052
    141 C43         6.8240    1.3570   -1.2510 c3        1 MOL      0.014215
    142 C44         6.0430    2.1230   -0.1840 c         1 MOL      0.276354
    143 O21         6.3520    3.2020    0.3260 o         1 MOL     -0.495809
    144 C45         6.0570    1.5780   -2.6210 c3        1 MOL     -0.150836
    145 C46         6.5600    2.9090   -3.1960 c3        1 MOL      0.001872
    146 C47         7.9920    2.8980   -3.7580 c3        1 MOL     -0.074856
    147 C48         8.0020    2.6150   -5.2770 c3        1 MOL      0.121991
    148 N13         9.3020    1.9610   -5.5990 n4        1 MOL     -0.326628
    149 H67         6.5630   -0.7820   -1.7310 hn        1 MOL      0.229918
    150 H68         7.8110    1.8030   -1.3840 h1        1 MOL      0.096350
    151 H69         5.0040    1.6480   -2.3420 hc        1 MOL      0.046052
    152 H70         6.0540    0.6790   -3.2420 hc        1 MOL      0.046052
    153 H71         6.4630    3.7110   -2.4600 hc        1 MOL      0.054831
    154 H72         5.8630    3.2840   -3.9550 hc        1 MOL      0.054831
    155 H73         8.6650    2.2330   -3.2090 hc        1 MOL      0.048493
    156 H74         8.4390    3.8850   -3.6920 hc        1 MOL      0.048493
    157 H75         7.9140    3.5060   -5.9000 hx        1 MOL      0.057531
    158 H76         7.1700    1.9460   -5.5290 hx        1 MOL      0.057531
    159 H77         9.3600    1.1390   -5.0210 hn        1 MOL      0.294670
    160 H78         9.4160    1.6270   -6.5460 hn        1 MOL      0.294670
    161 H79        10.0940    2.5930   -5.5090 hn        1 MOL      0.294670
    162 N14         4.9930    1.4290    0.2350 n         1 MOL      0.291618
    163 C49         4.0600    1.8730    1.2480 c3        1 MOL     -0.203148
    164 C50         4.5860    1.6870    2.6610 c         1 MOL      0.486333
    165 O22         4.2400    2.6030    3.4460 o         1 MOL     -0.559936
    166 C51         2.7600    1.1100    1.1320 c3        1 MOL      0.440043
    167 C52         1.9970    1.6060   -0.0760 c3        1 MOL     -0.727298
    168 C53         0.7360    0.7990   -0.2260 c         1 MOL      0.892584
    169 O23        -0.3770    1.3560   -0.2550 o         1 MOL     -0.819156
    170 O24         0.8270   -0.4310   -0.3660 o         1 MOL     -0.819156
    171 H80         4.7800    0.6090   -0.3180 hn        1 MOL     -0.208656
    172 H81         3.8560    2.9320    1.1100 h1        1 MOL      0.091317
    173 H82         2.1430    1.4290    1.9750 hc        1 MOL     -0.017554
    174 H83         2.9950    0.0440    1.1430 hc        1 MOL     -0.017554
    175 H84         2.5200    1.4010   -1.0110 hc        1 MOL      0.164384
    176 H85         1.7480    2.6520    0.1060 hc        1 MOL      0.164384
    177 N15         5.4630    0.7060    2.9250 n         1 MOL     -0.078236
    178 C54         6.1670    0.7260    4.1400 c3        1 MOL     -0.607321
    179 H86         5.4600    0.7990    4.9670 h1        1 MOL      0.190288
    180 H87         6.7480   -0.1910    4.2390 h1        1 MOL      0.190288
    181 H88         6.8360    1.5850    4.1600 h1        1 MOL      0.190288
    182 H89         5.6530    0.1040    2.1380 hn        1 MOL      0.173629
    183 Ca1        -1.8010   -0.6050   -1.4900 Ca        1 MOL      1.756939
    184 O25        -0.0130   -0.1270   -3.5090 oh        1 MOL     -0.805860
    185 H90         0.8220    0.1330   -3.9150 ho        1 MOL      0.386023
    186 H91        -0.5880    0.6190   -3.6360 ho        1 MOL      0.386023
    187 O26        -0.7840   -2.9490   -2.5670 oh        1 MOL     -0.805860
    188 H92        -1.1420   -3.8050   -2.8040 ho        1 MOL      0.386023
    189 H93        -0.1650   -2.7480   -3.2630 ho        1 MOL      0.386023
@<TRIPOS>BOND
     1    1    2 1   
     2    1    4 1   
     3    1    5 1   
     4    1    6 1   
     5    2    3 2   
     6    2    7 1   
     7    7    8 1   
     8    7   15 1   
     9    8    9 1   
    10    8   11 1   
    11    8   16 1   
    12    9   10 2   
    13    9   19 1   
    14   11   12 1   
    15   11   17 1   
    16   11   18 1   
    17   12   13 1   
    18   12   14 1   
    19   19   20 1   
    20   19   28 1   
    21   20   21 1   
    22   20   23 1   
    23   20   29 1   
    24   21   22 2   
    25   21   41 1   
    26   23   24 1   
    27   23   30 1   
    28   23   31 1   
    29   24   25 1   
    30   24   32 1   
    31   24   33 1   
    32   25   26 1   
    33   25   34 1   
    34   25   35 1   
    35   26   27 1   
    36   26   36 1   
    37   26   37 1   
    38   27   38 1   
    39   27   39 1   
    40   27   40 1   
    41   41   42 1   
    42   41   49 1   
    43   42   43 1   
    44   42   45 1   
    45   42   50 1   
    46   43   44 2   
    47   43   53 1   
    48   45   46 1   
    49   45   51 1   
    50   45   52 1   
    51   46   47 1   
    52   46   48 1   
    53   53   54 1   
    54   53   57 1   
    55   54   55 1   
    56   54   58 1   
    57   54   59 1   
    58   55   56 2   
    59   55   60 1   
    60   60   61 1   
    61   60   68 1   
    62   61   62 1   
    63   61   64 1   
    64   61   69 1   
    65   62   63 2   
    66   62   72 1   
    67   64   65 1   
    68   64   70 1   
    69   64   71 1   
    70   65   66 1   
    71   65   67 1   
    72   72   73 1   
    73   72   76 1   
    74   73   74 1   
    75   73   77 1   
    76   73   78 1   
    77   74   75 2   
    78   74   79 1   
    79   79   80 1   
    80   79   86 1   
    81   80   81 1   
    82   80   83 1   
    83   80   87 1   
    84   81   82 2   
    85   81   93 1   
    86   83   84 1   
    87   83   85 1   
    88   83   88 1   
    89   84   90 1   
    90   84   91 1   
    91   84   92 1   
    92   85   89 1   
    93   93   94 1   
    94   93  101 1   
    95   94   95 1   
    96   94   97 1   
    97   94  102 1   
    98   95   96 2   
    99   95  112 1   
   100   97   98 1   
   101   97   99 1   
   102   97  103 1   
   103   98  100 1   
   104   98  104 1   
   105   98  105 1   
   106   99  106 1   
   107   99  107 1   
   108   99  108 1   
   109  100  109 1   
   110  100  110 1   
   111  100  111 1   
   112  112  113 1   
   113  112  119 1   
   114  113  114 1   
   115  113  116 1   
   116  113  120 1   
   117  114  115 2   
   118  114  126 1   
   119  116  117 1   
   120  116  118 1   
   121  116  121 1   
   122  117  123 1   
   123  117  124 1   
   124  117  125 1   
   125  118  122 1   
   126  126  127 1   
   127  126  133 1   
   128  127  128 1   
   129  127  130 1   
   130  127  134 1   
   131  128  129 2   
   132  128  140 1   
   133  130  131 1   
   134  130  132 1   
   135  130  135 1   
   136  131  137 1   
   137  131  138 1   
   138  131  139 1   
   139  132  136 1   
   140  140  141 1   
   141  140  149 1   
   142  141  142 1   
   143  141  144 1   
   144  141  150 1   
   145  142  143 2   
   146  142  162 1   
   147  144  145 1   
   148  144  151 1   
   149  144  152 1   
   150  145  146 1   
   151  145  153 1   
   152  145  154 1   
   153  146  147 1   
   154  146  155 1   
   155  146  156 1   
   156  147  148 1   
   157  147  157 1   
   158  147  158 1   
   159  148  159 1   
   160  148  160 1   
   161  148  161 1   
   162  162  163 1   
   163  162  171 1   
   164  163  164 1   
   165  163  166 1   
   166  163  172 1   
   167  164  165 2   
   168  164  177 1   
   169  166  167 1   
   170  166  173 1   
   171  166  174 1   
   172  167  168 1   
   173  167  175 1   
   174  167  176 1   
   175  168  169 1   
   176  168  170 1   
   177  177  178 1   
   178  177  182 1   
   179  178  179 1   
   180  178  180 1   
   181  178  181 1   
   182  184  185 1   
   183  184  186 1   
   184  187  188 1   
   185  187  189 1   
@<TRIPOS>SUBSTRUCTURE
     1 MOL         1 TEMP              0 ****  ****    0 ROOT
