@<TRIPOS>MOLECULE
MOL
  189   185     1     0     0
SMALL
resp


@<TRIPOS>ATOM
      1 C1         -0.4700    1.9060    6.3350 c3        1 MOL     -0.299133
      2 C2         -0.7320    1.6190    4.8170 c         1 MOL      0.638846
      3 O1          0.0960    2.0340    3.9740 o         1 MOL     -0.605791
      4 H1         -1.3190    2.4480    6.7530 hc        1 MOL      0.076945
      5 H2         -0.3450    0.9640    6.8680 hc        1 MOL      0.076945
      6 H3          0.4330    2.5070    6.4420 hc        1 MOL      0.076945
      7 N1         -1.9010    1.0730    4.4870 n         1 MOL     -0.471429
      8 C3         -2.4400    1.1220    3.0780 c3        1 MOL      0.108764
      9 C4         -2.7230    2.5780    2.7490 c         1 MOL      0.491986
     10 O2         -3.4560    3.2060    3.5200 o         1 MOL     -0.590610
     11 C5         -3.7050    0.2350    2.9880 c3        1 MOL     -0.239930
     12 C6         -4.1240    0.0200    1.5120 c         1 MOL      0.909035
     13 O3         -5.1160   -0.6230    1.2700 o         1 MOL     -0.782486
     14 O4         -3.4570    0.4890    0.5970 o         1 MOL     -0.782486
     15 H4         -2.4700    0.7970    5.2710 hn        1 MOL      0.284051
     16 H5         -1.6340    0.7060    2.4780 h1        1 MOL      0.107142
     17 H6         -4.4590    0.7080    3.6180 hc        1 MOL      0.057250
     18 H7         -3.4200   -0.7420    3.3740 hc        1 MOL      0.057250
     19 N2         -2.1100    3.1010    1.7330 n         1 MOL     -0.142123
     20 C7         -2.1310    4.5900    1.3610 c3        1 MOL     -0.160961
     21 C8         -3.3900    4.9280    0.4190 c         1 MOL      0.491835
     22 O5         -3.8480    6.0720    0.3700 o         1 MOL     -0.559544
     23 C9         -0.7230    4.8950    0.7370 c3        1 MOL      0.190406
     24 C10        -0.5760    6.3720    0.4020 c3        1 MOL     -0.131339
     25 C11         0.8760    6.6870   -0.0570 c3        1 MOL     -0.033500
     26 C12         1.2620    8.2020   -0.1180 c3        1 MOL      0.118305
     27 N3          2.5720    8.5310   -0.6860 n4        1 MOL     -0.396296
     28 H8         -1.5700    2.4380    1.1830 hn        1 MOL      0.148133
     29 H9         -2.1980    5.2880    2.1870 h1        1 MOL      0.095185
     30 H10        -0.6280    4.3720   -0.2120 hc        1 MOL     -0.002570
     31 H11         0.0180    4.4920    1.4240 hc        1 MOL     -0.002570
     32 H12        -0.7690    7.0650    1.2270 hc        1 MOL      0.053659
     33 H13        -1.3110    6.6570   -0.3540 hc        1 MOL      0.053659
     34 H14         1.1580    6.2000   -0.9870 hc        1 MOL      0.017345
     35 H15         1.6120    6.2760    0.6470 hc        1 MOL      0.017345
     36 H16         1.1420    8.6110    0.8830 hx        1 MOL      0.060286
     37 H17         0.5500    8.6840   -0.7800 hx        1 MOL      0.060286
     38 H18         2.7150    7.8660   -1.4300 hn        1 MOL      0.335651
     39 H19         2.6270    9.5000   -0.9550 hn        1 MOL      0.335651
     40 H20         3.2770    8.3420    0.0190 hn        1 MOL      0.335651
     41 N4         -3.8480    3.8880   -0.3230 n         1 MOL     -0.199651
     42 C13        -4.7830    4.0040   -1.3740 c3        1 MOL     -0.016610
     43 C14        -5.9410    2.9430   -1.3980 c         1 MOL      0.469053
     44 O6         -6.5520    2.5850   -2.3750 o         1 MOL     -0.520628
     45 C15        -4.0320    4.0990   -2.7300 c3        1 MOL     -0.164584
     46 C16        -3.0760    3.0560   -2.9400 c         1 MOL      0.828204
     47 O7         -2.3560    3.0760   -3.9520 o         1 MOL     -0.741846
     48 O8         -3.0880    2.0930   -2.1530 o         1 MOL     -0.741846
     49 H21        -3.3010    3.0380   -0.2420 hn        1 MOL      0.124692
     50 H22        -5.2160    5.0000   -1.2610 h1        1 MOL      0.070190
     51 H23        -3.4490    5.0180   -2.6830 hc        1 MOL      0.035324
     52 H24        -4.7660    4.0890   -3.5410 hc        1 MOL      0.035324
     53 N5         -6.2160    2.5030   -0.2200 n         1 MOL     -0.288967
     54 C17        -7.3490    1.6250    0.2100 c3        1 MOL     -0.237578
     55 C18        -7.5690    0.3210   -0.5570 c         1 MOL      0.578902
     56 O9         -8.5850   -0.3240   -0.3810 o         1 MOL     -0.588421
     57 H25        -5.6240    2.8260    0.5280 hn        1 MOL      0.219173
     58 H26        -8.2610    2.2230    0.1520 h1        1 MOL      0.124912
     59 H27        -7.1540    1.2370    1.2120 h1        1 MOL      0.124912
     60 N6         -6.6080   -0.1130   -1.3900 n         1 MOL     -0.278162
     61 C19        -6.8810   -1.3060   -2.1830 c3        1 MOL     -0.078893
     62 C20        -6.8710   -2.5960   -1.3820 c         1 MOL      0.442084
     63 O10        -7.2350   -3.6190   -1.8950 o         1 MOL     -0.563772
     64 C21        -5.8590   -1.3920   -3.3200 c3        1 MOL     -0.060154
     65 C22        -4.3930   -1.2780   -2.9120 c         1 MOL      0.555234
     66 O11        -3.8870   -1.9510   -1.9740 o         1 MOL     -0.620927
     67 O12        -3.6970   -0.3690   -3.3580 o         1 MOL     -0.620927
     68 H28        -5.7180    0.3650   -1.4630 hn        1 MOL      0.319672
     69 H29        -7.8400   -1.1690   -2.6800 h1        1 MOL      0.113814
     70 H30        -6.1410   -0.5880   -3.9870 hc        1 MOL      0.031950
     71 H31        -6.0510   -2.2860   -3.9080 hc        1 MOL      0.031950
     72 N7         -6.3640   -2.5190   -0.1700 n         1 MOL     -0.036066
     73 C23        -6.4020   -3.5850    0.8460 c3        1 MOL     -0.398961
     74 C24        -5.1210   -4.4470    0.7400 c         1 MOL      0.621312
     75 O13        -5.0460   -5.4360    1.4450 o         1 MOL     -0.584197
     76 H32        -6.1010   -1.6290    0.2280 hn        1 MOL      0.260016
     77 H33        -7.2530   -4.2550    0.7070 h1        1 MOL      0.148291
     78 H34        -6.3410   -3.1530    1.8470 h1        1 MOL      0.148291
     79 N8         -4.1260   -3.9770   -0.0680 n         1 MOL     -0.160093
     80 C25        -2.8060   -4.5840   -0.0580 c3        1 MOL     -0.160167
     81 C26        -1.6490   -3.6130    0.2980 c         1 MOL      0.625409
     82 O14        -1.7180   -2.3590    0.1060 o         1 MOL     -0.642807
     83 C27        -2.5620   -5.2500   -1.3970 c3        1 MOL      0.411876
     84 C28        -3.5340   -6.3920   -1.5740 c3        1 MOL     -0.163862
     85 O15        -2.5530   -4.4100   -2.5110 oh        1 MOL     -0.652452
     86 H35        -4.3190   -3.1640   -0.6270 hn        1 MOL      0.062526
     87 H36        -2.8250   -5.2820    0.7800 h1        1 MOL      0.063404
     88 H37        -1.5860   -5.7330   -1.3450 h1        1 MOL     -0.009429
     89 H38        -3.3730   -3.9150   -2.5060 ho        1 MOL      0.440531
     90 H39        -4.5470   -5.9980   -1.6000 hc        1 MOL      0.028312
     91 H40        -3.3090   -6.9580   -2.4770 hc        1 MOL      0.028312
     92 H41        -3.3850   -7.1090   -0.7600 hc        1 MOL      0.028312
     93 N9         -0.5830   -4.1440    0.8660 n         1 MOL     -0.526249
     94 C29         0.6250   -3.3340    1.2810 c3        1 MOL      0.100235
     95 C30         1.7900   -3.6010    0.2510 c         1 MOL      0.454378
     96 O16         2.3310   -4.7210    0.2630 o         1 MOL     -0.518343
     97 C31         0.8250   -3.4690    2.8360 c3        1 MOL      0.001532
     98 C32        -0.2990   -2.7240    3.5540 c3        1 MOL      0.340195
     99 C33         2.1560   -2.8990    3.2430 c3        1 MOL     -0.113819
    100 C34        -0.1780   -2.4680    5.0780 c3        1 MOL     -0.234818
    101 H42        -0.6290   -5.1550    0.9090 hn        1 MOL      0.289384
    102 H43         0.3960   -2.2810    1.1310 h1        1 MOL      0.076778
    103 H44         0.8080   -4.5030    3.1970 hc        1 MOL      0.022375
    104 H45        -1.1660   -3.3660    3.4130 hc        1 MOL     -0.077512
    105 H46        -0.5190   -1.7660    3.0950 hc        1 MOL     -0.077512
    106 H47         2.9440   -3.3200    2.6130 hc        1 MOL      0.014224
    107 H48         2.2690   -1.8120    3.2080 hc        1 MOL      0.014224
    108 H49         2.3320   -3.1830    4.2810 hc        1 MOL      0.014224
    109 H50        -0.1060   -3.4020    5.6380 hc        1 MOL      0.037129
    110 H51         0.7050   -1.8540    5.2210 hc        1 MOL      0.037129
    111 H52        -1.0770   -1.9130    5.3680 hc        1 MOL      0.037129
    112 N10         2.2240   -2.5260   -0.5110 n         1 MOL     -0.198627
    113 C35         3.5430   -2.5670   -1.2510 c3        1 MOL     -0.216961
    114 C36         4.8370   -2.4260   -0.4270 c         1 MOL      0.350310
    115 O17         4.8050   -2.1430    0.7860 o         1 MOL     -0.317047
    116 C37         3.5490   -1.4160   -2.3250 c3        1 MOL      0.385184
    117 C38         2.3510   -1.5570   -3.2050 c3        1 MOL     -0.399787
    118 O18         3.3040   -0.2140   -1.6810 oh        1 MOL     -0.515178
    119 H53         1.7270   -1.6450   -0.4830 hn        1 MOL      0.178048
    120 H54         3.5680   -3.4640   -1.8780 h1        1 MOL      0.109121
    121 H55         4.4320   -1.4200   -2.9740 h1        1 MOL      0.029457
    122 H56         2.4330   -0.3950   -1.3400 ho        1 MOL      0.300542
    123 H57         2.2720   -2.5160   -3.7170 hc        1 MOL      0.106432
    124 H58         1.3830   -1.2630   -2.7880 hc        1 MOL      0.106432
    125 H59         2.5390   -0.8130   -3.9770 hc        1 MOL      0.106432
    126 N11         5.9920   -2.7360   -0.9990 n         1 MOL     -0.297937
    127 C39         7.3570   -2.3460   -0.4330 c3        1 MOL     -0.182406
    128 C40         7.4480   -0.8640   -0.0230 c         1 MOL      0.280823
    129 O19         8.2620   -0.5860    0.8400 o         1 MOL     -0.466694
    130 C41         8.4830   -2.6370   -1.4390 c3        1 MOL      0.323207
    131 C42         8.8700   -4.0820   -1.2620 c3        1 MOL     -0.339636
    132 O20         7.9970   -2.3920   -2.7140 oh        1 MOL     -0.629386
    133 H60         5.9170   -3.0480   -1.9660 hn        1 MOL      0.284511
    134 H61         7.5860   -2.8450    0.5110 h1        1 MOL      0.182816
    135 H62         9.3770   -2.0300   -1.2860 h1        1 MOL      0.037030
    136 H63         8.7560   -2.4840   -3.3010 ho        1 MOL      0.405695
    137 H64         9.6320   -4.3030   -2.0160 hc        1 MOL      0.099078
    138 H65         9.3920   -4.2140   -0.3120 hc        1 MOL      0.099078
    139 H66         7.9600   -4.6530   -1.4470 hc        1 MOL      0.099078
    140 N12         6.6590    0.0170   -0.6080 n         1 MOL     -0.122030
    141 C43         6.4800    1.4740   -0.3370 c3        1 MOL      0.008502
    142 C44         5.6940    1.7160    0.9730 c         1 MOL      0.358861
    143 O21         6.0500    2.4520    1.8570 o         1 MOL     -0.508049
    144 C45         5.9770    2.2370   -1.5620 c3        1 MOL     -0.103924
    145 C46         6.6970    1.8910   -2.8260 c3        1 MOL      0.050013
    146 C47         8.1720    2.1430   -2.6790 c3        1 MOL     -0.172873
    147 C48         8.8250    1.9490   -4.0560 c3        1 MOL      0.117246
    148 N13        10.2070    2.4010   -4.0740 n4        1 MOL     -0.329211
    149 H67         6.1170   -0.3340   -1.3920 hn        1 MOL      0.169286
    150 H68         7.4510    1.8730   -0.0730 h1        1 MOL      0.061658
    151 H69         5.9990    3.3100   -1.3970 hc        1 MOL      0.049765
    152 H70         4.9240    1.9940   -1.7340 hc        1 MOL      0.049765
    153 H71         6.3410    2.4160   -3.7080 hc        1 MOL      0.009360
    154 H72         6.4980    0.8410   -3.0470 hc        1 MOL      0.009360
    155 H73         8.5970    1.4780   -1.9290 hc        1 MOL      0.074269
    156 H74         8.2670    3.1550   -2.2970 hc        1 MOL      0.074269
    157 H75         8.2310    2.4820   -4.8000 hx        1 MOL      0.060508
    158 H76         8.7220    0.9200   -4.4030 hx        1 MOL      0.060508
    159 H77        10.7610    1.7640   -3.5180 hn        1 MOL      0.282534
    160 H78        10.5660    2.5220   -5.0120 hn        1 MOL      0.282534
    161 H79        10.3090    3.3220   -3.6780 hn        1 MOL      0.282534
    162 N14         4.7910    0.7510    1.2460 n         1 MOL     -0.000153
    163 C49         3.8690    0.6720    2.4510 c3        1 MOL     -0.213641
    164 C50         4.2870   -0.1350    3.6910 c         1 MOL      0.469357
    165 O22         3.9450    0.1610    4.8420 o         1 MOL     -0.510874
    166 C51         2.4950    0.2640    1.9200 c3        1 MOL      0.195290
    167 C52         1.7410    1.3670    1.0760 c3        1 MOL     -0.150183
    168 C53         0.5260    0.7890    0.3050 c         1 MOL      0.685999
    169 O23         0.6460   -0.2080   -0.4740 o         1 MOL     -0.670738
    170 O24        -0.6170    1.2200    0.4250 o         1 MOL     -0.670738
    171 H80         4.5820    0.0250    0.5760 hn        1 MOL     -0.004220
    172 H81         3.7490    1.7030    2.7770 h1        1 MOL      0.120659
    173 H82         1.8120    0.0930    2.7500 hc        1 MOL      0.041996
    174 H83         2.6370   -0.6240    1.3050 hc        1 MOL      0.041996
    175 H84         2.4360    1.8520    0.3950 hc        1 MOL      0.006133
    176 H85         1.3070    2.0410    1.8190 hc        1 MOL      0.006133
    177 N15         5.1580   -1.1630    3.3850 n         1 MOL     -0.189735
    178 C54         5.8580   -1.9690    4.3990 c3        1 MOL     -0.155998
    179 H86         6.8340   -2.2660    4.0150 h1        1 MOL      0.075644
    180 H87         5.9880   -1.3800    5.3060 h1        1 MOL      0.075644
    181 H88         5.2710   -2.8600    4.6240 h1        1 MOL      0.075644
    182 H89         5.3140   -1.3860    2.4190 hn        1 MOL      0.179173
    183 Ca1        -1.8750   -0.0530   -1.4190 Ca        1 MOL      1.788249
    184 O25        -0.7180   -2.1840   -2.5020 oh        1 MOL     -0.965918
    185 H90        -0.2240   -2.3240   -3.3070 ho        1 MOL      0.430561
    186 H91        -1.2030   -3.0030   -2.3710 ho        1 MOL      0.430561
    187 O26        -0.4330    0.9620   -3.4800 oh        1 MOL     -0.965918
    188 H92        -1.1070    1.5580   -3.8230 ho        1 MOL      0.430561
    189 H93         0.3330    1.1240   -4.0290 ho        1 MOL      0.430561
@<TRIPOS>BOND
     1    1    2 1   
     2    1    4 1   
     3    1    5 1   
     4    1    6 1   
     5    2    3 2   
     6    2    7 1   
     7    7    8 1   
     8    7   15 1   
     9    8    9 1   
    10    8   11 1   
    11    8   16 1   
    12    9   10 2   
    13    9   19 1   
    14   11   12 1   
    15   11   17 1   
    16   11   18 1   
    17   12   13 1   
    18   12   14 1   
    19   19   20 1   
    20   19   28 1   
    21   20   21 1   
    22   20   23 1   
    23   20   29 1   
    24   21   22 2   
    25   21   41 1   
    26   23   24 1   
    27   23   30 1   
    28   23   31 1   
    29   24   25 1   
    30   24   32 1   
    31   24   33 1   
    32   25   26 1   
    33   25   34 1   
    34   25   35 1   
    35   26   27 1   
    36   26   36 1   
    37   26   37 1   
    38   27   38 1   
    39   27   39 1   
    40   27   40 1   
    41   41   42 1   
    42   41   49 1   
    43   42   43 1   
    44   42   45 1   
    45   42   50 1   
    46   43   44 2   
    47   43   53 1   
    48   45   46 1   
    49   45   51 1   
    50   45   52 1   
    51   46   47 1   
    52   46   48 1   
    53   53   54 1   
    54   53   57 1   
    55   54   55 1   
    56   54   58 1   
    57   54   59 1   
    58   55   56 2   
    59   55   60 1   
    60   60   61 1   
    61   60   68 1   
    62   61   62 1   
    63   61   64 1   
    64   61   69 1   
    65   62   63 2   
    66   62   72 1   
    67   64   65 1   
    68   64   70 1   
    69   64   71 1   
    70   65   66 1   
    71   65   67 1   
    72   72   73 1   
    73   72   76 1   
    74   73   74 1   
    75   73   77 1   
    76   73   78 1   
    77   74   75 2   
    78   74   79 1   
    79   79   80 1   
    80   79   86 1   
    81   80   81 1   
    82   80   83 1   
    83   80   87 1   
    84   81   82 2   
    85   81   93 1   
    86   83   84 1   
    87   83   85 1   
    88   83   88 1   
    89   84   90 1   
    90   84   91 1   
    91   84   92 1   
    92   85   89 1   
    93   93   94 1   
    94   93  101 1   
    95   94   95 1   
    96   94   97 1   
    97   94  102 1   
    98   95   96 2   
    99   95  112 1   
   100   97   98 1   
   101   97   99 1   
   102   97  103 1   
   103   98  100 1   
   104   98  104 1   
   105   98  105 1   
   106   99  106 1   
   107   99  107 1   
   108   99  108 1   
   109  100  109 1   
   110  100  110 1   
   111  100  111 1   
   112  112  113 1   
   113  112  119 1   
   114  113  114 1   
   115  113  116 1   
   116  113  120 1   
   117  114  115 2   
   118  114  126 1   
   119  116  117 1   
   120  116  118 1   
   121  116  121 1   
   122  117  123 1   
   123  117  124 1   
   124  117  125 1   
   125  118  122 1   
   126  126  127 1   
   127  126  133 1   
   128  127  128 1   
   129  127  130 1   
   130  127  134 1   
   131  128  129 2   
   132  128  140 1   
   133  130  131 1   
   134  130  132 1   
   135  130  135 1   
   136  131  137 1   
   137  131  138 1   
   138  131  139 1   
   139  132  136 1   
   140  140  141 1   
   141  140  149 1   
   142  141  142 1   
   143  141  144 1   
   144  141  150 1   
   145  142  143 2   
   146  142  162 1   
   147  144  145 1   
   148  144  151 1   
   149  144  152 1   
   150  145  146 1   
   151  145  153 1   
   152  145  154 1   
   153  146  147 1   
   154  146  155 1   
   155  146  156 1   
   156  147  148 1   
   157  147  157 1   
   158  147  158 1   
   159  148  159 1   
   160  148  160 1   
   161  148  161 1   
   162  162  163 1   
   163  162  171 1   
   164  163  164 1   
   165  163  166 1   
   166  163  172 1   
   167  164  165 2   
   168  164  177 1   
   169  166  167 1   
   170  166  173 1   
   171  166  174 1   
   172  167  168 1   
   173  167  175 1   
   174  167  176 1   
   175  168  169 1   
   176  168  170 1   
   177  177  178 1   
   178  177  182 1   
   179  178  179 1   
   180  178  180 1   
   181  178  181 1   
   182  184  185 1   
   183  184  186 1   
   184  187  188 1   
   185  187  189 1   
@<TRIPOS>SUBSTRUCTURE
     1 MOL         1 TEMP              0 ****  ****    0 ROOT
