@<TRIPOS>MOLECULE
MOL
  189   185     1     0     0
SMALL
resp


@<TRIPOS>ATOM
      1 C1         -0.2130    1.3440    6.1670 c3        1 MOL     -0.372303
      2 C2         -0.5650    1.2450    4.6250 c         1 MOL      0.615344
      3 O1          0.2950    1.5530    3.8210 o         1 MOL     -0.577984
      4 H1         -0.9360    0.7650    6.7420 hc        1 MOL      0.105701
      5 H2          0.7870    0.9460    6.3380 hc        1 MOL      0.105701
      6 H3         -0.2500    2.3870    6.4830 hc        1 MOL      0.105701
      7 N1         -1.8010    0.7990    4.2260 n         1 MOL     -0.486361
      8 C3         -2.2980    1.0290    2.8450 c3        1 MOL      0.083106
      9 C4         -2.7110    2.5240    2.5640 c         1 MOL      0.452407
     10 O2         -3.7810    2.9760    3.0040 o         1 MOL     -0.497468
     11 C5         -3.4440   -0.0430    2.5210 c3        1 MOL     -0.379255
     12 C6         -4.1180    0.2630    1.2000 c         1 MOL      0.670531
     13 O3         -5.3240   -0.0300    1.0450 o         1 MOL     -0.547743
     14 O4         -3.3670    0.8520    0.3770 o         1 MOL     -0.547743
     15 H4         -2.5170    0.6310    4.9190 hn        1 MOL      0.318755
     16 H5         -1.4700    0.8960    2.1500 h1        1 MOL     -0.015641
     17 H6         -4.2390    0.0900    3.2490 hc        1 MOL      0.097732
     18 H7         -2.9970   -1.0380    2.5810 hc        1 MOL      0.097732
     19 N2         -1.7680    3.1820    1.8550 n         1 MOL     -0.349794
     20 C7         -1.8530    4.6010    1.4930 c3        1 MOL     -0.130381
     21 C8         -2.8710    4.8280    0.3860 c         1 MOL      0.515285
     22 O5         -2.9850    5.9970   -0.0550 o         1 MOL     -0.590739
     23 C9         -0.4350    5.1130    1.1110 c3        1 MOL      0.052763
     24 C10         0.4530    4.9880    2.3070 c3        1 MOL      0.029457
     25 C11         1.8180    5.6770    2.0770 c3        1 MOL      0.001048
     26 C12         2.6060    4.9180    1.0300 c3        1 MOL      0.136313
     27 N3          3.6740    5.7830    0.5060 n4        1 MOL     -0.563711
     28 H8         -0.9530    2.6930    1.5040 hn        1 MOL      0.446163
     29 H9         -2.2780    5.1240    2.3440 h1        1 MOL      0.115990
     30 H10        -0.4820    6.1610    0.8230 hc        1 MOL      0.004370
     31 H11         0.0120    4.4960    0.3360 hc        1 MOL      0.004370
     32 H12         0.6290    3.9320    2.5220 hc        1 MOL      0.016668
     33 H13         0.0110    5.4640    3.1810 hc        1 MOL      0.016668
     34 H14         2.3060    5.5770    3.0490 hc        1 MOL      0.020545
     35 H15         1.6140    6.7250    1.8830 hc        1 MOL      0.020545
     36 H16         1.9360    4.5780    0.2420 hx        1 MOL      0.072858
     37 H17         3.0150    4.0190    1.4760 hx        1 MOL      0.072858
     38 H18         3.4470    6.7670    0.4270 hn        1 MOL      0.348531
     39 H19         4.5330    5.6370    1.0210 hn        1 MOL      0.348531
     40 H20         3.8970    5.5030   -0.4430 hn        1 MOL      0.348531
     41 N4         -3.5650    3.8560   -0.1330 n         1 MOL      0.044029
     42 C13        -4.6130    4.1290   -1.1630 c3        1 MOL     -0.217210
     43 C14        -6.0430    3.6100   -0.8920 c         1 MOL      0.419554
     44 O6         -7.0030    4.0220   -1.6160 o         1 MOL     -0.504051
     45 C15        -4.2130    3.4590   -2.4890 c3        1 MOL      0.196277
     46 C16        -2.7180    3.3630   -2.7140 c         1 MOL      0.610315
     47 O7         -2.0920    2.3340   -2.4230 o         1 MOL     -0.612654
     48 O8         -2.0900    4.2820   -3.2300 o         1 MOL     -0.612654
     49 H21        -3.4330    2.9400    0.2670 hn        1 MOL     -0.221380
     50 H22        -4.7530    5.1950   -1.3660 h1        1 MOL      0.134799
     51 H23        -4.5970    3.9980   -3.3430 hc        1 MOL     -0.035189
     52 H24        -4.6220    2.4510   -2.4650 hc        1 MOL     -0.035189
     53 N5         -6.1420    2.5720   -0.0390 n         1 MOL     -0.258796
     54 C17        -7.4600    1.9590    0.2120 c3        1 MOL     -0.206369
     55 C18        -7.7720    0.9490   -0.9190 c         1 MOL      0.504005
     56 O9         -8.9320    0.8380   -1.3120 o         1 MOL     -0.546822
     57 H25        -5.2640    2.1860    0.2860 hn        1 MOL      0.298952
     58 H26        -8.2900    2.6720    0.2430 h1        1 MOL      0.119311
     59 H27        -7.3560    1.3850    1.1350 h1        1 MOL      0.119311
     60 N6         -6.7110    0.2650   -1.4190 n         1 MOL     -0.212582
     61 C19        -6.8990   -1.0110   -2.2270 c3        1 MOL     -0.102888
     62 C20        -7.0180   -2.2180   -1.2750 c         1 MOL      0.442912
     63 O10        -7.3570   -3.2680   -1.8240 o         1 MOL     -0.562888
     64 C21        -5.7540   -1.3250   -3.2470 c3        1 MOL     -0.126512
     65 C22        -4.3750   -1.0400   -2.6280 c         1 MOL      0.679999
     66 O11        -4.0090   -1.6090   -1.5810 o         1 MOL     -0.715823
     67 O12        -3.6810   -0.1650   -3.1340 o         1 MOL     -0.715823
     68 H28        -5.8090    0.4290   -0.9970 hn        1 MOL      0.187044
     69 H29        -7.8290   -1.0530   -2.7900 h1        1 MOL      0.130362
     70 H30        -5.8820   -0.7690   -4.1800 hc        1 MOL      0.066218
     71 H31        -5.7790   -2.3520   -3.5890 hc        1 MOL      0.066218
     72 N7         -6.8160   -2.1290   -0.0090 n         1 MOL     -0.198653
     73 C23        -6.9000   -3.2240    0.9090 c3        1 MOL     -0.064636
     74 C24        -5.6430   -4.0620    0.9880 c         1 MOL      0.405530
     75 O13        -5.6310   -5.1850    1.4920 o         1 MOL     -0.538500
     76 H32        -6.4640   -1.2490    0.3420 hn        1 MOL      0.182382
     77 H33        -7.7200   -3.8710    0.5900 h1        1 MOL      0.088085
     78 H34        -7.2470   -2.8320    1.8640 h1        1 MOL      0.088085
     79 N8         -4.4950   -3.6140    0.3690 n         1 MOL     -0.065013
     80 C25        -3.1620   -4.3610    0.3530 c3        1 MOL     -0.120305
     81 C26        -1.9050   -3.4930    0.4790 c         1 MOL      0.341946
     82 O14        -1.9750   -2.2260    0.4100 o         1 MOL     -0.434557
     83 C27        -3.0960   -5.1150   -0.9900 c3        1 MOL      0.554206
     84 C28        -4.1980   -6.1550   -1.0100 c3        1 MOL     -0.414019
     85 O15        -3.2640   -4.2540   -2.0870 oh        1 MOL     -0.657160
     86 H35        -4.5490   -2.6740    0.0080 hn        1 MOL      0.083232
     87 H36        -3.1720   -5.1710    1.0820 h1        1 MOL      0.079470
     88 H37        -2.0970   -5.5630   -1.0300 h1        1 MOL     -0.073148
     89 H38        -3.4790   -3.3780   -1.7540 ho        1 MOL      0.368686
     90 H39        -3.9620   -6.9530   -1.7010 hc        1 MOL      0.106061
     91 H40        -4.3610   -6.5830   -0.0220 hc        1 MOL      0.106061
     92 H41        -5.1090   -5.6420   -1.3170 hc        1 MOL      0.106061
     93 N9         -0.7250   -4.1100    0.6830 n         1 MOL     -0.466107
     94 C29         0.5450   -3.4190    1.0040 c3        1 MOL      0.125049
     95 C30         1.6560   -3.7530    0.0030 c         1 MOL      0.496184
     96 O16         1.8280   -4.8420   -0.4330 o         1 MOL     -0.550641
     97 C31         0.8860   -3.5010    2.5090 c3        1 MOL      0.001210
     98 C32        -0.0720   -2.6730    3.3320 c3        1 MOL     -0.026979
     99 C33         2.3710   -3.4050    2.8140 c3        1 MOL     -0.085720
    100 C34         0.1000   -2.7070    4.8660 c3        1 MOL     -0.341075
    101 H42        -0.7350   -5.0920    0.9230 hn        1 MOL      0.300051
    102 H43         0.4050   -2.3520    0.8340 h1        1 MOL     -0.051473
    103 H44         0.7120   -4.5520    2.7090 hc        1 MOL      0.019340
    104 H45        -1.0980   -2.8680    3.0330 hc        1 MOL      0.102571
    105 H46         0.1500   -1.6180    3.1490 hc        1 MOL      0.102571
    106 H47         2.7650   -2.4190    2.5500 hc        1 MOL      0.010067
    107 H48         2.5440   -3.4340    3.8920 hc        1 MOL      0.010067
    108 H49         3.0930   -4.0890    2.3650 hc        1 MOL      0.010067
    109 H50         0.2340   -3.7510    5.1840 hc        1 MOL      0.086501
    110 H51         0.9430   -2.1060    5.1900 hc        1 MOL      0.086501
    111 H52        -0.8480   -2.3080    5.2280 hc        1 MOL      0.086501
    112 N10         2.4080   -2.7550   -0.4330 n         1 MOL     -0.176842
    113 C35         3.5550   -2.8870   -1.3020 c3        1 MOL      0.006130
    114 C36         4.8620   -2.9180   -0.5060 c         1 MOL      0.339320
    115 O17         4.9830   -2.7920    0.6810 o         1 MOL     -0.349343
    116 C37         3.6500   -1.7420   -2.3510 c3        1 MOL     -0.018734
    117 C38         2.5720   -1.8520   -3.3850 c3        1 MOL     -0.216401
    118 O18         3.4710   -0.4310   -1.7450 oh        1 MOL     -0.435518
    119 H53         2.0960   -1.8170   -0.2160 hn        1 MOL      0.308137
    120 H54         3.6220   -3.8320   -1.8390 h1        1 MOL      0.088428
    121 H55         4.6210   -1.7230   -2.8370 h1        1 MOL      0.160808
    122 H56         2.5940   -0.5300   -1.3580 ho        1 MOL      0.244478
    123 H57         1.5560   -1.7510   -2.9920 hc        1 MOL      0.068343
    124 H58         2.7770   -1.1020   -4.1450 hc        1 MOL      0.068343
    125 H59         2.5650   -2.7870   -3.9370 hc        1 MOL      0.068343
    126 N11         5.9720   -2.9320   -1.2530 n         1 MOL     -0.300685
    127 C39         7.3490   -2.4800   -0.9100 c3        1 MOL     -0.218849
    128 C40         7.5020   -1.0790   -0.4040 c         1 MOL      0.448457
    129 O19         8.1520   -0.9540    0.6400 o         1 MOL     -0.481801
    130 C41         8.3220   -2.6610   -2.0770 c3        1 MOL      0.384090
    131 C42         8.6610   -4.0860   -2.4870 c3        1 MOL     -0.396929
    132 O20         7.7790   -1.9260   -3.1970 oh        1 MOL     -0.683526
    133 H60         5.8020   -3.1680   -2.2200 hn        1 MOL      0.247642
    134 H61         7.6720   -3.1100   -0.0840 h1        1 MOL      0.156705
    135 H62         9.2100   -2.1290   -1.7310 h1        1 MOL      0.035193
    136 H63         8.4520   -1.9670   -3.8760 ho        1 MOL      0.418496
    137 H64         9.7550   -4.1030   -2.5600 hc        1 MOL      0.114892
    138 H65         8.3760   -4.6890   -1.6280 hc        1 MOL      0.114892
    139 H66         8.2240   -4.4380   -3.4170 hc        1 MOL      0.114892
    140 N12         6.8360   -0.0790   -0.9540 n         1 MOL     -0.282136
    141 C43         6.7820    1.2850   -0.4280 c3        1 MOL      0.003187
    142 C44         6.1750    1.3490    1.0090 c         1 MOL      0.199234
    143 O21         6.6280    2.0600    1.9690 o         1 MOL     -0.485390
    144 C45         5.9700    2.1140   -1.4340 c3        1 MOL      0.005856
    145 C46         6.5410    2.0090   -2.8330 c3        1 MOL     -0.118263
    146 C47         5.8610    2.8960   -3.8530 c3        1 MOL      0.036705
    147 C48         6.1590    4.4020   -3.5860 c3        1 MOL     -0.036093
    148 N13         7.5330    4.7520   -4.0790 n4        1 MOL     -0.121798
    149 H67         6.3690   -0.3540   -1.8050 hn        1 MOL      0.157554
    150 H68         7.7730    1.7520   -0.4000 h1        1 MOL      0.094177
    151 H69         5.9900    3.1590   -1.1250 hc        1 MOL     -0.013777
    152 H70         4.9290    1.7770   -1.4920 hc        1 MOL     -0.013777
    153 H71         6.3870    1.0160   -3.2700 hc        1 MOL      0.052139
    154 H72         7.6250    2.1170   -2.8590 hc        1 MOL      0.052139
    155 H73         4.7850    2.6880   -3.7980 hc        1 MOL      0.057694
    156 H74         6.2380    2.5640   -4.8150 hc        1 MOL      0.057694
    157 H75         6.0610    4.6390   -2.5220 hx        1 MOL      0.054986
    158 H76         5.4650    4.9970   -4.1840 hx        1 MOL      0.054986
    159 H77         7.7480    5.7310   -3.9710 hn        1 MOL      0.216665
    160 H78         8.2840    4.2730   -3.6020 hn        1 MOL      0.216665
    161 H79         7.6200    4.5770   -5.0690 hn        1 MOL      0.216665
    162 N14         5.0910    0.6030    1.1850 n         1 MOL      0.004571
    163 C49         4.1010    0.6410    2.2740 c3        1 MOL     -0.188304
    164 C50         4.5570   -0.2200    3.4610 c         1 MOL      0.482284
    165 O22         4.3880    0.1050    4.6440 o         1 MOL     -0.524130
    166 C51         2.7800    0.2790    1.6480 c3        1 MOL      0.197730
    167 C52         2.2480    1.3230    0.7010 c3        1 MOL      0.027229
    168 C53         0.9120    0.8310    0.0410 c         1 MOL      0.737459
    169 O23        -0.1390    1.5240    0.0890 o         1 MOL     -0.786987
    170 O24         0.9380   -0.2930   -0.5120 o         1 MOL     -0.786987
    171 H80         4.8490    0.0390    0.3730 hn        1 MOL      0.264641
    172 H81         4.1310    1.6890    2.5860 h1        1 MOL      0.085489
    173 H82         2.0300    0.3430    2.4290 hc        1 MOL      0.001821
    174 H83         2.6630   -0.7440    1.2850 hc        1 MOL      0.001821
    175 H84         3.0150    1.7040    0.0290 hc        1 MOL     -0.082319
    176 H85         2.0060    2.2600    1.2080 hc        1 MOL     -0.082319
    177 N15         5.2340   -1.3600    3.1350 n         1 MOL     -0.060826
    178 C54         6.1550   -2.0680    4.0500 c3        1 MOL     -0.364802
    179 H86         5.5910   -2.4780    4.8860 h1        1 MOL      0.128543
    180 H87         6.6490   -2.8780    3.5130 h1        1 MOL      0.128543
    181 H88         6.9040   -1.3700    4.4240 h1        1 MOL      0.128543
    182 H89         5.2920   -1.7290    2.1970 hn        1 MOL      0.106358
    183 Ca1        -1.6890    0.0920   -1.3690 Ca        1 MOL      1.725972
    184 O25        -1.2010   -2.2190   -2.4630 oh        1 MOL     -0.793792
    185 H90        -0.4260   -2.7070   -2.7650 ho        1 MOL      0.393282
    186 H91        -1.9380   -2.7680   -2.7260 ho        1 MOL      0.393282
    187 O26         0.0380    0.4070   -3.3860 oh        1 MOL     -0.793792
    188 H92        -0.0740    0.5100   -4.3320 ho        1 MOL      0.393282
    189 H93         0.8320    0.9080   -3.1800 ho        1 MOL      0.393282
@<TRIPOS>BOND
     1    1    2 1   
     2    1    4 1   
     3    1    5 1   
     4    1    6 1   
     5    2    3 2   
     6    2    7 1   
     7    7    8 1   
     8    7   15 1   
     9    8    9 1   
    10    8   11 1   
    11    8   16 1   
    12    9   10 2   
    13    9   19 1   
    14   11   12 1   
    15   11   17 1   
    16   11   18 1   
    17   12   13 1   
    18   12   14 1   
    19   19   20 1   
    20   19   28 1   
    21   20   21 1   
    22   20   23 1   
    23   20   29 1   
    24   21   22 2   
    25   21   41 1   
    26   23   24 1   
    27   23   30 1   
    28   23   31 1   
    29   24   25 1   
    30   24   32 1   
    31   24   33 1   
    32   25   26 1   
    33   25   34 1   
    34   25   35 1   
    35   26   27 1   
    36   26   36 1   
    37   26   37 1   
    38   27   38 1   
    39   27   39 1   
    40   27   40 1   
    41   41   42 1   
    42   41   49 1   
    43   42   43 1   
    44   42   45 1   
    45   42   50 1   
    46   43   44 2   
    47   43   53 1   
    48   45   46 1   
    49   45   51 1   
    50   45   52 1   
    51   46   47 1   
    52   46   48 1   
    53   53   54 1   
    54   53   57 1   
    55   54   55 1   
    56   54   58 1   
    57   54   59 1   
    58   55   56 2   
    59   55   60 1   
    60   60   61 1   
    61   60   68 1   
    62   61   62 1   
    63   61   64 1   
    64   61   69 1   
    65   62   63 2   
    66   62   72 1   
    67   64   65 1   
    68   64   70 1   
    69   64   71 1   
    70   65   66 1   
    71   65   67 1   
    72   72   73 1   
    73   72   76 1   
    74   73   74 1   
    75   73   77 1   
    76   73   78 1   
    77   74   75 2   
    78   74   79 1   
    79   79   80 1   
    80   79   86 1   
    81   80   81 1   
    82   80   83 1   
    83   80   87 1   
    84   81   82 2   
    85   81   93 1   
    86   83   84 1   
    87   83   85 1   
    88   83   88 1   
    89   84   90 1   
    90   84   91 1   
    91   84   92 1   
    92   85   89 1   
    93   93   94 1   
    94   93  101 1   
    95   94   95 1   
    96   94   97 1   
    97   94  102 1   
    98   95   96 2   
    99   95  112 1   
   100   97   98 1   
   101   97   99 1   
   102   97  103 1   
   103   98  100 1   
   104   98  104 1   
   105   98  105 1   
   106   99  106 1   
   107   99  107 1   
   108   99  108 1   
   109  100  109 1   
   110  100  110 1   
   111  100  111 1   
   112  112  113 1   
   113  112  119 1   
   114  113  114 1   
   115  113  116 1   
   116  113  120 1   
   117  114  115 2   
   118  114  126 1   
   119  116  117 1   
   120  116  118 1   
   121  116  121 1   
   122  117  123 1   
   123  117  124 1   
   124  117  125 1   
   125  118  122 1   
   126  126  127 1   
   127  126  133 1   
   128  127  128 1   
   129  127  130 1   
   130  127  134 1   
   131  128  129 2   
   132  128  140 1   
   133  130  131 1   
   134  130  132 1   
   135  130  135 1   
   136  131  137 1   
   137  131  138 1   
   138  131  139 1   
   139  132  136 1   
   140  140  141 1   
   141  140  149 1   
   142  141  142 1   
   143  141  144 1   
   144  141  150 1   
   145  142  143 2   
   146  142  162 1   
   147  144  145 1   
   148  144  151 1   
   149  144  152 1   
   150  145  146 1   
   151  145  153 1   
   152  145  154 1   
   153  146  147 1   
   154  146  155 1   
   155  146  156 1   
   156  147  148 1   
   157  147  157 1   
   158  147  158 1   
   159  148  159 1   
   160  148  160 1   
   161  148  161 1   
   162  162  163 1   
   163  162  171 1   
   164  163  164 1   
   165  163  166 1   
   166  163  172 1   
   167  164  165 2   
   168  164  177 1   
   169  166  167 1   
   170  166  173 1   
   171  166  174 1   
   172  167  168 1   
   173  167  175 1   
   174  167  176 1   
   175  168  169 1   
   176  168  170 1   
   177  177  178 1   
   178  177  182 1   
   179  178  179 1   
   180  178  180 1   
   181  178  181 1   
   182  184  185 1   
   183  184  186 1   
   184  187  188 1   
   185  187  189 1   
@<TRIPOS>SUBSTRUCTURE
     1 MOL         1 TEMP              0 ****  ****    0 ROOT
