@<TRIPOS>MOLECULE
MOL
  179   176     1     0     0
SMALL
resp


@<TRIPOS>ATOM
      1 C1          1.6200    3.8970    4.5490 c3        1 MOL     -0.297564
      2 C2          1.0450    3.3560    3.1730 c         1 MOL      0.724748
      3 O1          1.6820    3.3890    2.1630 o         1 MOL     -0.558717
      4 H1          1.8520    3.0550    5.2010 hc        1 MOL      0.068725
      5 H2          2.5260    4.4730    4.3640 hc        1 MOL      0.068725
      6 H3          0.8760    4.5330    5.0290 hc        1 MOL      0.068725
      7 N1         -0.1430    2.8920    3.1910 n         1 MOL     -0.573999
      8 C3         -0.9700    2.6800    2.0350 c3        1 MOL      0.069314
      9 C4         -1.6710    3.9330    1.4600 c         1 MOL      0.514849
     10 O2         -2.7870    4.3080    1.9120 o         1 MOL     -0.501411
     11 C5         -2.0640    1.6100    2.3960 c3        1 MOL     -0.114176
     12 C6         -2.8420    1.1500    1.1920 c         1 MOL      0.703019
     13 O3         -3.9940    0.6890    1.4500 o         1 MOL     -0.656274
     14 O4         -2.3730    1.3240    0.0530 o         1 MOL     -0.656274
     15 H4         -0.7200    2.9750    4.0130 hn        1 MOL      0.329689
     16 H5         -0.4760    2.2180    1.1830 h1        1 MOL     -0.001740
     17 H6         -2.7900    2.0190    3.1010 hc        1 MOL      0.030777
     18 H7         -1.5700    0.7180    2.7900 hc        1 MOL      0.030777
     19 N2         -0.9420    4.7910    0.6990 n         1 MOL     -0.379328
     20 C7         -1.4090    6.1190    0.2490 c3        1 MOL     -0.126835
     21 C8         -2.4610    6.0230   -0.9120 c         1 MOL      0.424850
     22 O5         -2.9590    7.0920   -1.3000 o         1 MOL     -0.525991
     23 C9         -0.2460    6.8900   -0.3070 c3        1 MOL     -0.129843
     24 C10         0.7650    7.1540    0.7970 c3        1 MOL      0.464047
     25 C11         1.9310    8.0850    0.2790 c3        1 MOL     -0.393357
     26 C12         3.0080    8.2080    1.3140 c3        1 MOL      0.138162
     27 N3          2.5610    9.1110    2.4020 n4        1 MOL     -0.381391
     28 H8          0.0270    4.5090    0.6360 hn        1 MOL      0.293615
     29 H9         -1.8500    6.6700    1.0830 h1        1 MOL      0.136941
     30 H10        -0.5240    7.8740   -0.6780 hc        1 MOL      0.067414
     31 H11         0.3440    6.3740   -1.0610 hc        1 MOL      0.067414
     32 H12         1.1100    6.2020    1.1940 hc        1 MOL     -0.122986
     33 H13         0.1890    7.5900    1.6040 hc        1 MOL     -0.122986
     34 H14         1.4830    9.0260   -0.0070 hc        1 MOL      0.124339
     35 H15         2.3800    7.5470   -0.5680 hc        1 MOL      0.124339
     36 H16         3.9570    8.6340    0.9760 hx        1 MOL      0.085872
     37 H17         3.2230    7.2800    1.8400 hx        1 MOL      0.085872
     38 H18         2.3930   10.0410    2.0440 hn        1 MOL      0.322250
     39 H19         1.7150    8.7480    2.8190 hn        1 MOL      0.322250
     40 H20         3.2880    9.2670    3.0890 hn        1 MOL      0.322250
     41 N4         -2.7580    4.8570   -1.4990 n         1 MOL     -0.176145
     42 C13        -3.9460    4.6090   -2.2950 c3        1 MOL     -0.059158
     43 C14        -5.1330    3.9490   -1.5520 c         1 MOL      0.505988
     44 O6         -6.1990    3.9300   -2.1380 o         1 MOL     -0.499397
     45 C15        -3.5020    3.6750   -3.5090 c3        1 MOL     -0.173228
     46 C16        -2.8710    2.3700   -3.1820 c         1 MOL      0.735452
     47 O7         -1.6490    2.3560   -2.8880 o         1 MOL     -0.751018
     48 O8         -3.4740    1.2410   -3.1970 o         1 MOL     -0.751018
     49 H21        -2.1660    4.0430   -1.3830 hn        1 MOL      0.192205
     50 H22        -4.2850    5.5940   -2.6100 h1        1 MOL      0.105250
     51 H23        -2.7800    4.2340   -4.1110 hc        1 MOL      0.057262
     52 H24        -4.3670    3.5340   -4.1560 hc        1 MOL      0.057262
     53 N5         -4.9550    3.4020   -0.3310 n         1 MOL     -0.126642
     54 C17        -6.0600    3.0570    0.5920 c3        1 MOL     -0.216781
     55 C18        -6.8950    1.8550    0.1650 c         1 MOL      0.454974
     56 O9         -8.1470    1.9500    0.1170 o         1 MOL     -0.546578
     57 H25        -4.0420    3.1280    0.0100 hn        1 MOL      0.039216
     58 H26        -6.7650    3.8920    0.5820 h1        1 MOL      0.124388
     59 H27        -5.7070    2.9620    1.6150 h1        1 MOL      0.124388
     60 N6         -6.2640    0.7660   -0.3220 n         1 MOL     -0.173836
     61 C19        -6.8730   -0.4980   -0.6270 c3        1 MOL      0.049753
     62 C20        -6.7380   -1.5650    0.4800 c         1 MOL      0.246918
     63 O10        -7.4270   -2.6100    0.4360 o         1 MOL     -0.481402
     64 C21        -6.3690   -0.9000   -1.9800 c3        1 MOL     -0.099584
     65 C22        -5.0920   -1.6450   -2.0420 c         1 MOL      0.667641
     66 N7         -5.1140   -2.7920   -2.6900 n         1 MOL     -0.841774
     67 O11        -4.0870   -1.2780   -1.4530 o         1 MOL     -0.545055
     68 H28        -5.2760    0.9390   -0.2900 hn        1 MOL      0.134022
     69 H29        -7.9590   -0.4340   -0.7140 h1        1 MOL      0.111057
     70 H30        -6.2080   -0.0520   -2.6360 hc        1 MOL      0.043302
     71 H31        -7.1570   -1.5490   -2.3820 hc        1 MOL      0.043302
     72 H32        -6.0350   -3.1620   -2.8480 hn        1 MOL      0.383690
     73 H33        -4.3230   -3.4170   -2.6490 hn        1 MOL      0.383690
     74 N8         -5.8480   -1.3790    1.4790 n         1 MOL     -0.017362
     75 C23        -5.5810   -2.2790    2.6020 c3        1 MOL     -0.404540
     76 C24        -4.3170   -3.0990    2.4740 c         1 MOL      0.793533
     77 O12        -4.1210   -3.9520    3.3080 o         1 MOL     -0.595998
     78 H34        -5.3470   -0.5090    1.5420 hn        1 MOL      0.162427
     79 H35        -6.3610   -3.0430    2.6290 h1        1 MOL      0.156550
     80 H36        -5.5430   -1.7970    3.5800 h1        1 MOL      0.156550
     81 N9         -3.4140   -2.7900    1.5010 n         1 MOL     -0.574240
     82 C25        -2.2560   -3.6080    1.1560 c3        1 MOL      0.151445
     83 C26        -0.9340   -2.8390    0.7870 c         1 MOL      0.665288
     84 O13        -1.0300   -1.9540   -0.0940 o         1 MOL     -0.643870
     85 C27        -2.6080   -4.4230   -0.1130 c3        1 MOL     -0.141438
     86 C28        -3.6080   -5.6110    0.1120 ca        1 MOL      0.235412
     87 C29        -4.9990   -5.4560    0.1160 ca        1 MOL     -0.371878
     88 C30        -3.0350   -6.9340    0.4010 ca        1 MOL     -0.371878
     89 C31        -5.8800   -6.5400    0.4080 ca        1 MOL     -0.074344
     90 C32        -3.9470   -7.9600    0.7770 ca        1 MOL     -0.074344
     91 C33        -5.3860   -7.8240    0.6720 ca        1 MOL      0.186807
     92 O14        -6.2190   -8.8910    0.9330 oh        1 MOL     -0.455255
     93 H37        -3.6100   -1.9560    0.9690 hn        1 MOL      0.271885
     94 H38        -1.9670   -4.2460    2.0010 h1        1 MOL      0.042975
     95 H39        -1.6780   -4.7070   -0.6150 hc        1 MOL      0.027078
     96 H40        -3.0910   -3.7860   -0.8600 hc        1 MOL      0.027078
     97 H41        -5.4910   -4.5010   -0.0140 ha        1 MOL      0.171417
     98 H42        -1.9660   -7.0290    0.4770 ha        1 MOL      0.171417
     99 H43        -6.9420   -6.3720    0.4860 ha        1 MOL      0.114212
    100 H44        -3.5350   -8.8680    1.2130 ha        1 MOL      0.114212
    101 H45        -5.7740   -9.7290    1.0440 ho        1 MOL      0.351004
    102 N10         0.2660   -3.2430    1.2330 n         1 MOL     -0.470825
    103 C34         1.5240   -2.4920    1.0520 c3        1 MOL      0.031497
    104 C35         2.6340   -3.3720    0.5560 c         1 MOL      0.519943
    105 O15         2.8480   -4.4280    1.1700 o         1 MOL     -0.565002
    106 C36         1.9000   -1.6170    2.3030 c3        1 MOL     -0.141382
    107 C37         2.2530   -2.5240    3.5630 c3        1 MOL      0.049168
    108 C38         0.7700   -0.6970    2.6580 c3        1 MOL      0.157438
    109 C39         2.7410   -1.7830    4.7790 c3        1 MOL     -0.097753
    110 H46         0.3610   -4.0450    1.8440 hn        1 MOL      0.270460
    111 H47         1.2660   -1.8570    0.2090 h1        1 MOL      0.050292
    112 H48         2.7290   -0.9470    2.0590 hc        1 MOL      0.048662
    113 H49         2.9880   -3.3080    3.3510 hc        1 MOL      0.023162
    114 H50         1.3860   -3.0980    3.8800 hc        1 MOL      0.023162
    115 H51         0.5510    0.0000    1.8530 hc        1 MOL     -0.027887
    116 H52        -0.1670   -1.2030    2.8780 hc        1 MOL     -0.027887
    117 H53         1.0650   -0.1310    3.5530 hc        1 MOL     -0.027887
    118 H54         1.9420   -1.1430    5.1640 hc        1 MOL      0.021661
    119 H55         2.9820   -2.5070    5.5550 hc        1 MOL      0.021661
    120 H56         3.6620   -1.2440    4.5690 hc        1 MOL      0.021661
    121 N11         3.3380   -2.9900   -0.4790 n         1 MOL     -0.295380
    122 C40         4.6030   -3.7090   -0.9360 c3        1 MOL      0.036642
    123 C41         5.8730   -3.2240   -0.2080 c         1 MOL      0.463451
    124 O16         5.8240   -2.1480    0.4950 o         1 MOL     -0.451573
    125 C42         4.7590   -3.5640   -2.4320 c3        1 MOL     -0.204426
    126 O17         5.3930   -2.4010   -2.7630 oh        1 MOL     -0.453509
    127 H57         3.0390   -2.1980   -1.0380 hn        1 MOL      0.220951
    128 H58         4.5520   -4.7770   -0.7400 h1        1 MOL      0.069439
    129 H59         3.7860   -3.6360   -2.9070 h1        1 MOL      0.124486
    130 H60         5.4020   -4.3830   -2.7650 h1        1 MOL      0.124486
    131 H61         5.0810   -2.0590   -3.6090 ho        1 MOL      0.394498
    132 N12         7.0410   -3.8790   -0.2910 n         1 MOL     -0.397476
    133 C43         8.3060   -3.4450    0.2600 c3        1 MOL      0.080529
    134 C44         8.6870   -2.0410   -0.4300 c         1 MOL      0.520375
    135 O18         9.2840   -1.2140    0.2320 o         1 MOL     -0.534670
    136 C45         9.2930   -4.5580    0.0420 c3        1 MOL     -0.311399
    137 H62         7.1520   -4.7530   -0.7870 hn        1 MOL      0.285028
    138 H63         8.1880   -3.3790    1.3440 h1        1 MOL      0.122463
    139 H64         8.9820   -5.4530    0.5740 hc        1 MOL      0.095122
    140 H65         9.3750   -4.7020   -1.0340 hc        1 MOL      0.095122
    141 H66        10.2320   -4.1720    0.4400 hc        1 MOL      0.095122
    142 N13         8.2440   -1.6910   -1.6540 n         1 MOL     -0.376233
    143 C46         8.3560   -0.3600   -2.2870 c3        1 MOL      0.006718
    144 C47         7.3780    0.6220   -1.7650 c         1 MOL      0.486228
    145 O19         7.7520    1.7800   -1.7520 o         1 MOL     -0.532635
    146 C48         8.2230   -0.5860   -3.8360 c3        1 MOL     -0.262021
    147 H67         7.7950   -2.3790   -2.2410 hn        1 MOL      0.236473
    148 H68         9.3440    0.0570   -2.0890 h1        1 MOL      0.127508
    149 H69         7.2570   -1.0620   -3.9880 hc        1 MOL      0.077577
    150 H70         8.2360    0.4070   -4.2980 hc        1 MOL      0.077577
    151 H71         9.0470   -1.1510   -4.2680 hc        1 MOL      0.077577
    152 N14         6.2290    0.2110   -1.1180 n         1 MOL     -0.258787
    153 C49         5.4770    1.1550   -0.3420 c3        1 MOL      0.015756
    154 C50         6.0860    1.3400    1.0390 c         1 MOL      0.444618
    155 O20         6.0530    2.4460    1.6130 o         1 MOL     -0.590497
    156 C51         4.0350    0.6410   -0.3600 c3        1 MOL     -0.139337
    157 C52         3.3470    0.7880   -1.7640 c3        1 MOL     -0.100763
    158 C53         1.8900    0.1770   -1.8260 c         1 MOL      0.868617
    159 O21         0.8960    0.7920   -1.4310 o         1 MOL     -0.739209
    160 O22         1.7480   -0.8770   -2.4540 o         1 MOL     -0.739209
    161 H72         6.0210   -0.7770   -1.0450 hn        1 MOL      0.222388
    162 H73         5.3700    2.1380   -0.8100 h1        1 MOL      0.095469
    163 H74         3.4510    1.1920    0.3730 hc        1 MOL      0.060970
    164 H75         3.9460   -0.4050   -0.0570 hc        1 MOL      0.060970
    165 H76         3.9240    0.4050   -2.5950 hc        1 MOL     -0.000216
    166 H77         3.2700    1.8240   -2.1000 hc        1 MOL     -0.000216
    167 N15         6.7190    0.3840    1.6970 n         1 MOL     -0.042014
    168 C54         7.5060    0.6700    2.9490 c3        1 MOL     -0.318261
    169 H78         7.7200   -0.2650    3.4640 h1        1 MOL      0.123308
    170 H79         8.4430    1.1610    2.6860 h1        1 MOL      0.123308
    171 H80         6.9250    1.3200    3.6040 h1        1 MOL      0.123308
    172 H81         6.7140   -0.5100    1.2350 hn        1 MOL      0.074810
    173 Ca1        -1.4890   -0.0820   -1.9160 Ca        1 MOL      1.735956
    174 O23        -1.4890   -2.4670   -2.8760 oh        1 MOL     -0.833473
    175 H82        -2.1750   -2.9990   -3.2830 ho        1 MOL      0.407351
    176 H83        -0.7350   -3.0600   -2.8260 ho        1 MOL      0.407351
    177 O24        -0.5070    0.2440   -4.3280 oh        1 MOL     -0.833473
    178 H84        -1.2960    0.4440   -4.8210 ho        1 MOL      0.407351
    179 H85         0.1720    0.1190   -4.9930 ho        1 MOL      0.407351
@<TRIPOS>BOND
     1    1    2 1   
     2    1    4 1   
     3    1    5 1   
     4    1    6 1   
     5    2    3 2   
     6    2    7 1   
     7    7    8 1   
     8    7   15 1   
     9    8    9 1   
    10    8   11 1   
    11    8   16 1   
    12    9   10 2   
    13    9   19 1   
    14   11   12 1   
    15   11   17 1   
    16   11   18 1   
    17   12   13 1   
    18   12   14 1   
    19   19   20 1   
    20   19   28 1   
    21   20   21 1   
    22   20   23 1   
    23   20   29 1   
    24   21   22 2   
    25   21   41 1   
    26   23   24 1   
    27   23   30 1   
    28   23   31 1   
    29   24   25 1   
    30   24   32 1   
    31   24   33 1   
    32   25   26 1   
    33   25   34 1   
    34   25   35 1   
    35   26   27 1   
    36   26   36 1   
    37   26   37 1   
    38   27   38 1   
    39   27   39 1   
    40   27   40 1   
    41   41   42 1   
    42   41   49 1   
    43   42   43 1   
    44   42   45 1   
    45   42   50 1   
    46   43   44 2   
    47   43   53 1   
    48   45   46 1   
    49   45   51 1   
    50   45   52 1   
    51   46   47 1   
    52   46   48 1   
    53   53   54 1   
    54   53   57 1   
    55   54   55 1   
    56   54   58 1   
    57   54   59 1   
    58   55   56 2   
    59   55   60 1   
    60   60   61 1   
    61   60   68 1   
    62   61   62 1   
    63   61   64 1   
    64   61   69 1   
    65   62   63 2   
    66   62   74 1   
    67   64   65 1   
    68   64   70 1   
    69   64   71 1   
    70   65   66 1   
    71   65   67 2   
    72   66   72 1   
    73   66   73 1   
    74   74   75 1   
    75   74   78 1   
    76   75   76 1   
    77   75   79 1   
    78   75   80 1   
    79   76   77 2   
    80   76   81 1   
    81   81   82 1   
    82   81   93 1   
    83   82   83 1   
    84   82   85 1   
    85   82   94 1   
    86   83   84 2   
    87   83  102 1   
    88   85   86 1   
    89   85   95 1   
    90   85   96 1   
    91   86   87 ar  
    92   86   88 ar  
    93   87   89 ar  
    94   87   97 1   
    95   88   90 ar  
    96   88   98 1   
    97   89   91 ar  
    98   89   99 1   
    99   90   91 ar  
   100   90  100 1   
   101   91   92 1   
   102   92  101 1   
   103  102  103 1   
   104  102  110 1   
   105  103  104 1   
   106  103  106 1   
   107  103  111 1   
   108  104  105 2   
   109  104  121 1   
   110  106  107 1   
   111  106  108 1   
   112  106  112 1   
   113  107  109 1   
   114  107  113 1   
   115  107  114 1   
   116  108  115 1   
   117  108  116 1   
   118  108  117 1   
   119  109  118 1   
   120  109  119 1   
   121  109  120 1   
   122  121  122 1   
   123  121  127 1   
   124  122  123 1   
   125  122  125 1   
   126  122  128 1   
   127  123  124 2   
   128  123  132 1   
   129  125  126 1   
   130  125  129 1   
   131  125  130 1   
   132  126  131 1   
   133  132  133 1   
   134  132  137 1   
   135  133  134 1   
   136  133  136 1   
   137  133  138 1   
   138  134  135 2   
   139  134  142 1   
   140  136  139 1   
   141  136  140 1   
   142  136  141 1   
   143  142  143 1   
   144  142  147 1   
   145  143  144 1   
   146  143  146 1   
   147  143  148 1   
   148  144  145 2   
   149  144  152 1   
   150  146  149 1   
   151  146  150 1   
   152  146  151 1   
   153  152  153 1   
   154  152  161 1   
   155  153  154 1   
   156  153  156 1   
   157  153  162 1   
   158  154  155 2   
   159  154  167 1   
   160  156  157 1   
   161  156  163 1   
   162  156  164 1   
   163  157  158 1   
   164  157  165 1   
   165  157  166 1   
   166  158  159 1   
   167  158  160 1   
   168  167  168 1   
   169  167  172 1   
   170  168  169 1   
   171  168  170 1   
   172  168  171 1   
   173  174  175 1   
   174  174  176 1   
   175  177  178 1   
   176  177  179 1   
@<TRIPOS>SUBSTRUCTURE
     1 MOL         1 TEMP              0 ****  ****    0 ROOT
