@<TRIPOS>MOLECULE
MOL
  179   176     1     0     0
SMALL
resp


@<TRIPOS>ATOM
      1 C1          2.5860    1.9770    5.5500 c3        1 MOL     -0.403399
      2 C2          1.8200    2.0430    4.2000 c         1 MOL      0.776529
      3 O1          2.4950    2.2080    3.1560 o         1 MOL     -0.634377
      4 H1          1.9120    2.2470    6.3620 hc        1 MOL      0.109685
      5 H2          2.9580    0.9640    5.7080 hc        1 MOL      0.109685
      6 H3          3.4240    2.6720    5.5270 hc        1 MOL      0.109685
      7 N1          0.4560    1.8410    4.1940 n         1 MOL     -0.634830
      8 C3         -0.4090    1.9560    3.0200 c3        1 MOL      0.342270
      9 C4         -0.1300    3.4020    2.6210 c         1 MOL      0.275935
     10 O2         -0.3540    4.3160    3.5200 o         1 MOL     -0.552461
     11 C5         -1.8590    1.6830    3.3370 c3        1 MOL     -0.148649
     12 C6         -2.7670    1.4910    2.0770 c         1 MOL      0.768930
     13 O3         -4.0360    1.4450    2.1950 o         1 MOL     -0.727146
     14 O4         -2.1930    1.4320    0.9880 o         1 MOL     -0.727146
     15 H4          0.0110    1.6420    5.0720 hn        1 MOL      0.320612
     16 H5          0.0260    1.3790    2.1990 h1        1 MOL     -0.066959
     17 H6         -2.2930    2.4310    3.9980 hc        1 MOL      0.039720
     18 H7         -1.9790    0.7380    3.8820 hc        1 MOL      0.039720
     19 N2          0.3130    3.7240    1.4020 n         1 MOL     -0.079552
     20 C7          0.7350    5.1080    0.9980 c3        1 MOL      0.051811
     21 C8         -0.2510    5.7830   -0.0080 c         1 MOL      0.304117
     22 O5         -0.4840    7.0190    0.0310 o         1 MOL     -0.520871
     23 C9          2.1840    4.8640    0.5090 c3        1 MOL     -0.058396
     24 C10         2.5760    6.1010   -0.3740 c3        1 MOL     -0.251294
     25 C11         4.0760    5.8610   -0.8440 c3        1 MOL     -0.041088
     26 C12         4.6750    6.9330   -1.7550 c3        1 MOL     -0.031623
     27 N3          5.6940    6.3010   -2.6910 n4        1 MOL     -0.339161
     28 H8          0.4830    2.9330    0.7940 hn        1 MOL      0.159473
     29 H9          0.7180    5.7320    1.8900 h1        1 MOL      0.094515
     30 H10         2.1910    3.9270   -0.0480 hc        1 MOL      0.102970
     31 H11         2.8470    4.8520    1.3760 hc        1 MOL      0.102970
     32 H12         2.4780    6.9640    0.2910 hc        1 MOL      0.093965
     33 H13         1.9310    6.1240   -1.2460 hc        1 MOL      0.093965
     34 H14         4.1580    4.8470   -1.2510 hc        1 MOL      0.058656
     35 H15         4.6410    5.7940    0.0870 hc        1 MOL      0.058656
     36 H16         5.0480    7.7600   -1.1500 hx        1 MOL      0.117075
     37 H17         3.8480    7.2870   -2.3660 hx        1 MOL      0.117075
     38 H18         5.2850    5.4820   -3.1160 hn        1 MOL      0.322681
     39 H19         5.9190    6.9390   -3.4380 hn        1 MOL      0.322681
     40 H20         6.4980    5.9570   -2.1950 hn        1 MOL      0.322681
     41 N4         -0.8870    4.9790   -0.8560 n         1 MOL     -0.221154
     42 C13        -2.0120    5.3850   -1.7640 c3        1 MOL      0.060044
     43 C14        -3.3850    5.4370   -1.0470 c         1 MOL      0.440419
     44 O6         -4.2900    6.2210   -1.3680 o         1 MOL     -0.537559
     45 C15        -2.0590    4.4720   -3.0300 c3        1 MOL     -0.259298
     46 C16        -1.9740    2.9530   -2.6920 c         1 MOL      0.783471
     47 O7         -2.0090    2.5590   -1.5270 o         1 MOL     -0.750058
     48 O8         -1.7650    2.1430   -3.5980 o         1 MOL     -0.750058
     49 H21        -0.5140    4.0470   -0.9200 hn        1 MOL      0.240522
     50 H22        -1.8300    6.3600   -2.2190 h1        1 MOL      0.064948
     51 H23        -1.0760    4.6560   -3.4720 hc        1 MOL      0.068171
     52 H24        -2.8500    4.7910   -3.6970 hc        1 MOL      0.068171
     53 N5         -3.4670    4.5810   -0.0390 n         1 MOL     -0.056376
     54 C17        -4.6330    4.4480    0.8070 c3        1 MOL     -0.298009
     55 C18        -5.6820    3.4850    0.1820 c         1 MOL      0.576731
     56 O9         -6.9220    3.6960    0.1530 o         1 MOL     -0.584698
     57 H25        -2.7000    3.9220    0.0320 hn        1 MOL      0.108938
     58 H26        -5.1850    5.3870    0.8600 h1        1 MOL      0.137594
     59 H27        -4.2960    4.0770    1.7730 h1        1 MOL      0.137594
     60 N6         -5.1770    2.4780   -0.5190 n         1 MOL     -0.125213
     61 C19        -6.0120    1.5150   -1.2750 c3        1 MOL     -0.232388
     62 C20        -6.5990    0.3250   -0.4610 c         1 MOL      0.351715
     63 O10        -7.4800   -0.4460   -0.9140 o         1 MOL     -0.484346
     64 C21        -5.2550    1.2030   -2.6100 c3        1 MOL     -0.050222
     65 C22        -4.3470   -0.0050   -2.5450 c         1 MOL      0.501120
     66 N7         -4.5000   -0.8770   -3.5280 n         1 MOL     -0.529504
     67 O11        -3.4800   -0.2750   -1.7240 o         1 MOL     -0.606412
     68 H28        -4.1640    2.5420   -0.5270 hn        1 MOL      0.081952
     69 H29        -6.8220    2.0960   -1.7150 h1        1 MOL      0.168715
     70 H30        -4.6680    2.0420   -2.9670 hc        1 MOL      0.079081
     71 H31        -6.0200    1.0720   -3.3800 hc        1 MOL      0.079081
     72 H32        -5.1040   -0.6680   -4.3080 hn        1 MOL      0.284679
     73 H33        -3.8280   -1.6200   -3.5990 hn        1 MOL      0.284679
     74 N8         -6.0640    0.0640    0.7720 n         1 MOL      0.033192
     75 C23        -6.5140   -1.0530    1.6280 c3        1 MOL     -0.355496
     76 C24        -5.6820   -2.2970    1.4770 c         1 MOL      0.640638
     77 O12        -6.2960   -3.3740    1.7220 o         1 MOL     -0.537496
     78 H34        -5.4770    0.7110    1.2730 hn        1 MOL      0.175396
     79 H35        -7.5470   -1.3000    1.4040 h1        1 MOL      0.127795
     80 H36        -6.5180   -0.6820    2.6580 h1        1 MOL      0.127795
     81 N9         -4.3960   -2.1740    1.2630 n         1 MOL     -0.368998
     82 C25        -3.3630   -3.2670    1.2580 c3        1 MOL     -0.079253
     83 C26        -1.9200   -2.6600    1.3050 c         1 MOL      0.677285
     84 O13        -1.7700   -1.5510    0.8290 o         1 MOL     -0.681177
     85 C27        -3.4700   -3.9080   -0.1040 c3        1 MOL      0.275416
     86 C28        -4.6630   -4.7900   -0.5090 ca        1 MOL     -0.293986
     87 C29        -4.9430   -5.9730    0.1580 ca        1 MOL      0.056387
     88 C30        -5.5100   -4.2700   -1.5370 ca        1 MOL      0.056387
     89 C31        -6.1780   -6.6780   -0.1110 ca        1 MOL     -0.479958
     90 C32        -6.6900   -4.9660   -1.8170 ca        1 MOL     -0.479958
     91 C33        -7.0580   -6.1090   -1.0800 ca        1 MOL      0.601235
     92 O14        -8.2010   -6.7750   -1.3390 oh        1 MOL     -0.553367
     93 H37        -4.0590   -1.2510    1.0800 hn        1 MOL      0.244624
     94 H38        -3.5310   -3.9550    2.0930 h1        1 MOL      0.061195
     95 H39        -2.6390   -4.5750   -0.3510 hc        1 MOL     -0.030783
     96 H40        -3.3650   -3.0720   -0.7840 hc        1 MOL     -0.030783
     97 H41        -4.1570   -6.4120    0.7640 ha        1 MOL      0.089154
     98 H42        -5.2840   -3.3980   -2.1220 ha        1 MOL      0.089154
     99 H43        -6.3980   -7.5800    0.4340 ha        1 MOL      0.194340
    100 H44        -7.3590   -4.5180   -2.5390 ha        1 MOL      0.194340
    101 H45        -8.2610   -7.6450   -0.9320 ho        1 MOL      0.374449
    102 N10        -0.8790   -3.4000    1.7940 n         1 MOL     -0.537239
    103 C34         0.4760   -2.9500    1.8470 c3        1 MOL      0.021375
    104 C35         1.3270   -3.8010    0.8890 c         1 MOL      0.381978
    105 O15         1.3790   -5.0210    0.9730 o         1 MOL     -0.571441
    106 C36         1.0540   -3.0440    3.2510 c3        1 MOL      0.420422
    107 C37         0.2270   -2.4670    4.4300 c3        1 MOL      0.139370
    108 C38         2.4430   -2.5320    3.1840 c3        1 MOL     -0.338717
    109 C39         0.8010   -2.8320    5.8410 c3        1 MOL     -0.222026
    110 H46        -1.0450   -4.3730    2.0190 hn        1 MOL      0.299586
    111 H47         0.4540   -1.8890    1.5980 h1        1 MOL      0.092269
    112 H48         1.1610   -4.0840    3.5370 hc        1 MOL     -0.070323
    113 H49        -0.7470   -2.9490    4.3120 hc        1 MOL     -0.073337
    114 H50         0.1850   -1.3910    4.3070 hc        1 MOL     -0.073337
    115 H51         2.9940   -3.1350    2.4680 hc        1 MOL      0.041608
    116 H52         2.4920   -1.5190    2.7920 hc        1 MOL      0.041608
    117 H53         2.9250   -2.6080    4.1600 hc        1 MOL      0.041608
    118 H54         0.8510   -3.9190    5.9360 hc        1 MOL      0.055107
    119 H55         1.7630   -2.3500    6.0090 hc        1 MOL      0.055107
    120 H56         0.2730   -2.4110    6.7060 hc        1 MOL      0.055107
    121 N11         1.9600   -3.2710   -0.0900 n         1 MOL     -0.032272
    122 C40         2.8530   -3.8660   -1.1020 c3        1 MOL      0.001045
    123 C41         4.3320   -3.8870   -0.5800 c         1 MOL      0.341759
    124 O16         4.6910   -3.0820    0.3110 o         1 MOL     -0.394119
    125 C42         2.8410   -3.1370   -2.4620 c3        1 MOL      0.241581
    126 O17         1.5800   -3.1330   -3.1140 oh        1 MOL     -0.610052
    127 H57         1.8240   -2.2950   -0.3170 hn        1 MOL      0.202338
    128 H58         2.5620   -4.8820   -1.3650 h1        1 MOL      0.080439
    129 H59         3.4870   -3.6110   -3.2000 h1        1 MOL     -0.009963
    130 H60         3.1490   -2.1010   -2.3410 h1        1 MOL     -0.009963
    131 H61         1.7390   -2.6640   -3.9330 ho        1 MOL      0.379634
    132 N12         5.1440   -4.7540   -1.1470 n         1 MOL     -0.320727
    133 C43         6.6030   -4.6880   -1.0560 c3        1 MOL      0.084532
    134 C44         7.2390   -3.3000   -1.4390 c         1 MOL      0.416401
    135 O18         8.2310   -2.8760   -0.8870 o         1 MOL     -0.476606
    136 C45         7.1990   -5.8720   -1.8460 c3        1 MOL     -0.292987
    137 H62         4.7030   -5.5430   -1.6010 hn        1 MOL      0.260603
    138 H63         6.9310   -4.9940   -0.0660 h1        1 MOL      0.107568
    139 H64         6.8690   -5.7740   -2.8780 hc        1 MOL      0.095581
    140 H65         8.2830   -5.8540   -1.8450 hc        1 MOL      0.095581
    141 H66         6.8020   -6.7970   -1.4150 hc        1 MOL      0.095581
    142 N13         6.6540   -2.5160   -2.3610 n         1 MOL     -0.201563
    143 C46         7.0360   -1.1810   -2.7970 c3        1 MOL      0.008125
    144 C47         6.9340   -0.2100   -1.6400 c         1 MOL      0.317754
    145 O19         7.7720    0.6990   -1.3810 o         1 MOL     -0.520848
    146 C48         6.0950   -0.7020   -3.8600 c3        1 MOL     -0.246750
    147 H67         5.9170   -2.9560   -2.8960 hn        1 MOL      0.144595
    148 H68         8.0580   -1.2770   -3.1780 h1        1 MOL      0.104235
    149 H69         5.0570   -0.8510   -3.5700 hc        1 MOL      0.078802
    150 H70         6.3390    0.3460   -4.0150 hc        1 MOL      0.078802
    151 H71         6.2070   -1.1590   -4.8420 hc        1 MOL      0.078802
    152 N14         5.9590   -0.4670   -0.7800 n         1 MOL      0.030202
    153 C49         5.5310    0.5250    0.2930 c3        1 MOL     -0.118355
    154 C50         6.2220    0.2020    1.6400 c         1 MOL      0.463392
    155 O20         6.4000    1.0820    2.4530 o         1 MOL     -0.506162
    156 C51         4.0150    0.4310    0.4970 c3        1 MOL      0.222042
    157 C52         3.2640    0.9370   -0.7220 c3        1 MOL     -0.419166
    158 C53         1.7770    0.7580   -0.5740 c         1 MOL      1.119029
    159 O21         1.3230   -0.4230   -0.5030 o         1 MOL     -0.867720
    160 O22         1.0430    1.7090   -0.5480 o         1 MOL     -0.867720
    161 H72         5.4750   -1.3550   -0.8030 hn        1 MOL      0.079470
    162 H73         5.7560    1.5170   -0.0910 h1        1 MOL      0.079515
    163 H74         3.7620    1.0970    1.3290 hc        1 MOL     -0.008109
    164 H75         3.7680   -0.6220    0.5800 hc        1 MOL     -0.008109
    165 H76         3.4490    0.3210   -1.5920 hc        1 MOL      0.022004
    166 H77         3.5130    1.9930   -0.8820 hc        1 MOL      0.022004
    167 N15         6.6350   -1.1050    1.8280 n         1 MOL     -0.163363
    168 C54         7.7440   -1.4410    2.6780 c3        1 MOL     -0.221763
    169 H78         7.4020   -1.5080    3.7100 h1        1 MOL      0.097489
    170 H79         8.1600   -2.4010    2.3710 h1        1 MOL      0.097489
    171 H80         8.5110   -0.6710    2.5980 h1        1 MOL      0.097489
    172 H81         6.2540   -1.8040    1.1970 hn        1 MOL      0.119820
    173 Ca1        -1.1260    0.2330   -1.0340 Ca        1 MOL      1.791611
    174 O23        -0.8790   -2.1760   -2.0610 oh        1 MOL     -0.861263
    175 H82        -0.0000   -2.2580   -2.4260 ho        1 MOL      0.411461
    176 H83        -1.4670   -2.5210   -2.7360 ho        1 MOL      0.411461
    177 O24         0.4020   -0.2400   -3.4870 oh        1 MOL     -0.861263
    178 H84        -0.1950   -0.4350   -4.2170 ho        1 MOL      0.411461
    179 H85         1.2610   -0.1330   -3.9020 ho        1 MOL      0.411461
@<TRIPOS>BOND
     1    1    2 1   
     2    1    4 1   
     3    1    5 1   
     4    1    6 1   
     5    2    3 2   
     6    2    7 1   
     7    7    8 1   
     8    7   15 1   
     9    8    9 1   
    10    8   11 1   
    11    8   16 1   
    12    9   10 2   
    13    9   19 1   
    14   11   12 1   
    15   11   17 1   
    16   11   18 1   
    17   12   13 1   
    18   12   14 1   
    19   19   20 1   
    20   19   28 1   
    21   20   21 1   
    22   20   23 1   
    23   20   29 1   
    24   21   22 2   
    25   21   41 1   
    26   23   24 1   
    27   23   30 1   
    28   23   31 1   
    29   24   25 1   
    30   24   32 1   
    31   24   33 1   
    32   25   26 1   
    33   25   34 1   
    34   25   35 1   
    35   26   27 1   
    36   26   36 1   
    37   26   37 1   
    38   27   38 1   
    39   27   39 1   
    40   27   40 1   
    41   41   42 1   
    42   41   49 1   
    43   42   43 1   
    44   42   45 1   
    45   42   50 1   
    46   43   44 2   
    47   43   53 1   
    48   45   46 1   
    49   45   51 1   
    50   45   52 1   
    51   46   47 1   
    52   46   48 1   
    53   53   54 1   
    54   53   57 1   
    55   54   55 1   
    56   54   58 1   
    57   54   59 1   
    58   55   56 2   
    59   55   60 1   
    60   60   61 1   
    61   60   68 1   
    62   61   62 1   
    63   61   64 1   
    64   61   69 1   
    65   62   63 2   
    66   62   74 1   
    67   64   65 1   
    68   64   70 1   
    69   64   71 1   
    70   65   66 1   
    71   65   67 2   
    72   66   72 1   
    73   66   73 1   
    74   74   75 1   
    75   74   78 1   
    76   75   76 1   
    77   75   79 1   
    78   75   80 1   
    79   76   77 2   
    80   76   81 1   
    81   81   82 1   
    82   81   93 1   
    83   82   83 1   
    84   82   85 1   
    85   82   94 1   
    86   83   84 2   
    87   83  102 1   
    88   85   86 1   
    89   85   95 1   
    90   85   96 1   
    91   86   87 ar  
    92   86   88 ar  
    93   87   89 ar  
    94   87   97 1   
    95   88   90 ar  
    96   88   98 1   
    97   89   91 ar  
    98   89   99 1   
    99   90   91 ar  
   100   90  100 1   
   101   91   92 1   
   102   92  101 1   
   103  102  103 1   
   104  102  110 1   
   105  103  104 1   
   106  103  106 1   
   107  103  111 1   
   108  104  105 2   
   109  104  121 1   
   110  106  107 1   
   111  106  108 1   
   112  106  112 1   
   113  107  109 1   
   114  107  113 1   
   115  107  114 1   
   116  108  115 1   
   117  108  116 1   
   118  108  117 1   
   119  109  118 1   
   120  109  119 1   
   121  109  120 1   
   122  121  122 1   
   123  121  127 1   
   124  122  123 1   
   125  122  125 1   
   126  122  128 1   
   127  123  124 2   
   128  123  132 1   
   129  125  126 1   
   130  125  129 1   
   131  125  130 1   
   132  126  131 1   
   133  132  133 1   
   134  132  137 1   
   135  133  134 1   
   136  133  136 1   
   137  133  138 1   
   138  134  135 2   
   139  134  142 1   
   140  136  139 1   
   141  136  140 1   
   142  136  141 1   
   143  142  143 1   
   144  142  147 1   
   145  143  144 1   
   146  143  146 1   
   147  143  148 1   
   148  144  145 2   
   149  144  152 1   
   150  146  149 1   
   151  146  150 1   
   152  146  151 1   
   153  152  153 1   
   154  152  161 1   
   155  153  154 1   
   156  153  156 1   
   157  153  162 1   
   158  154  155 2   
   159  154  167 1   
   160  156  157 1   
   161  156  163 1   
   162  156  164 1   
   163  157  158 1   
   164  157  165 1   
   165  157  166 1   
   166  158  159 1   
   167  158  160 1   
   168  167  168 1   
   169  167  172 1   
   170  168  169 1   
   171  168  170 1   
   172  168  171 1   
   173  174  175 1   
   174  174  176 1   
   175  177  178 1   
   176  177  179 1   
@<TRIPOS>SUBSTRUCTURE
     1 MOL         1 TEMP              0 ****  ****    0 ROOT
