@<TRIPOS>MOLECULE
MOL
  175   173     1     0     0
SMALL
resp


@<TRIPOS>ATOM
      1 C1          0.8140    4.2950    5.3480 c3        1 MOL     -0.444502
      2 C2          0.1570    4.1500    3.9760 c         1 MOL      0.748109
      3 O1          0.8180    4.1420    3.0200 o         1 MOL     -0.527045
      4 H1          1.5710    5.0770    5.3060 hc        1 MOL      0.107876
      5 H2          0.0580    4.5620    6.0860 hc        1 MOL      0.107876
      6 H3          1.2810    3.3510    5.6300 hc        1 MOL      0.107876
      7 N1         -1.1840    4.1490    3.8900 n         1 MOL     -0.690741
      8 C3         -1.8100    3.9100    2.6090 c3        1 MOL      0.319218
      9 C4         -1.9220    5.0570    1.5850 c         1 MOL      0.496451
     10 O2         -2.3380    6.1620    1.9250 o         1 MOL     -0.584704
     11 C5         -3.1290    3.2150    2.9020 c3        1 MOL     -0.478903
     12 C6         -3.7690    2.5720    1.6370 c         1 MOL      0.827141
     13 O3         -4.9460    2.2280    1.7860 o         1 MOL     -0.680998
     14 O4         -3.1580    2.3540    0.5820 o         1 MOL     -0.680998
     15 H4         -1.7380    4.1040    4.7240 hn        1 MOL      0.342004
     16 H5         -1.2190    3.1280    2.1220 h1        1 MOL      0.023507
     17 H6         -3.7120    3.9920    3.3860 hc        1 MOL      0.097532
     18 H7         -3.1000    2.4740    3.6990 hc        1 MOL      0.097532
     19 N2         -1.7950    4.7550    0.2850 n         1 MOL     -0.357786
     20 C7         -2.0370    5.6460   -0.8980 c3        1 MOL      0.275967
     21 C8         -3.2340    5.1510   -1.7190 c         1 MOL      0.449728
     22 O5         -3.5280    5.8220   -2.6960 o         1 MOL     -0.576809
     23 C9         -0.8070    5.6050   -1.7990 c3        1 MOL     -0.189516
     24 H8         -1.4190    3.8470    0.0420 hn        1 MOL      0.145432
     25 H9         -2.2090    6.6760   -0.5890 h1        1 MOL      0.014787
     26 H10        -0.4950    4.5940   -2.0370 hc        1 MOL      0.051236
     27 H11        -0.9440    6.1740   -2.7170 hc        1 MOL      0.051236
     28 H12        -0.0310    6.1190   -1.2280 hc        1 MOL      0.051236
     29 N3         -3.9040    3.9660   -1.6430 n         1 MOL     -0.568747
     30 C10        -4.5660    3.3740   -2.8450 c3        1 MOL      0.379349
     31 C11        -5.9400    2.6410   -2.4190 c         1 MOL      0.283552
     32 O6         -6.6610    2.3340   -3.3040 o         1 MOL     -0.523530
     33 C12        -3.6880    2.4240   -3.7090 c3        1 MOL     -0.311567
     34 C13        -3.1290    1.2910   -2.8420 c         1 MOL      0.866113
     35 O7         -1.9880    0.9000   -3.0480 o         1 MOL     -0.742701
     36 O8         -3.7760    0.7380   -1.9620 o         1 MOL     -0.742701
     37 H13        -3.6470    3.3330   -0.8940 hn        1 MOL      0.333291
     38 H14        -4.9410    4.1890   -3.4610 h1        1 MOL      0.021156
     39 H15        -2.8980    3.0190   -4.1810 hc        1 MOL      0.058895
     40 H16        -4.3610    2.0300   -4.4660 hc        1 MOL      0.058895
     41 N4         -6.1240    2.2190   -1.1570 n         1 MOL     -0.120679
     42 C14        -7.2160    1.3760   -0.6080 c3        1 MOL     -0.281988
     43 C15        -7.3270   -0.1300   -1.0160 c         1 MOL      0.513104
     44 O9         -8.3720   -0.7810   -0.7470 o         1 MOL     -0.615836
     45 H17        -5.4220    2.5230   -0.4880 hn        1 MOL      0.097603
     46 H18        -8.2050    1.7950   -0.8100 h1        1 MOL      0.130872
     47 H19        -7.0060    1.4350    0.4640 h1        1 MOL      0.130872
     48 N5         -6.2980   -0.7280   -1.6690 n         1 MOL     -0.210117
     49 C16        -6.3570   -2.0720   -2.2010 c3        1 MOL     -0.042720
     50 C17        -6.4580   -3.2240   -1.1400 c         1 MOL      0.450814
     51 O10        -6.6020   -4.3650   -1.5080 o         1 MOL     -0.529117
     52 C18        -5.1330   -2.1830   -3.0520 c3        1 MOL      0.068196
     53 C19        -3.7430   -2.1710   -2.4440 c         1 MOL      0.541164
     54 N6         -2.7280   -2.2040   -3.2960 n         1 MOL     -0.686035
     55 O11        -3.5270   -2.1480   -1.2710 o         1 MOL     -0.498933
     56 H20        -5.5020   -0.1130   -1.7210 hn        1 MOL      0.205860
     57 H21        -7.2630   -2.1270   -2.8120 h1        1 MOL      0.093673
     58 H22        -5.2280   -1.3940   -3.8040 hc        1 MOL     -0.013384
     59 H23        -5.3120   -3.0750   -3.6490 hc        1 MOL     -0.013384
     60 H24        -2.9930   -2.0580   -4.2560 hn        1 MOL      0.333815
     61 H25        -1.7910   -2.0800   -2.9340 hn        1 MOL      0.333815
     62 N7         -6.3500   -2.9660    0.1860 n         1 MOL     -0.143848
     63 C20        -6.5200   -3.9580    1.2890 c3        1 MOL     -0.339584
     64 C21        -5.1760   -4.4730    1.7690 c         1 MOL      0.539603
     65 O12        -5.1490   -5.3290    2.7300 o         1 MOL     -0.602980
     66 H26        -6.2620   -2.0150    0.5100 hn        1 MOL      0.184808
     67 H27        -7.0440   -4.7920    0.8290 h1        1 MOL      0.152227
     68 H28        -7.0590   -3.4870    2.1110 h1        1 MOL      0.152227
     69 N8         -4.0800   -4.0100    1.2210 n         1 MOL     -0.271405
     70 C22        -2.6860   -4.4260    1.3950 c3        1 MOL     -0.060643
     71 C23        -1.7460   -3.3020    1.6380 c         1 MOL      0.510668
     72 O13        -1.8070   -2.2240    1.0260 o         1 MOL     -0.672486
     73 C24        -2.2530   -5.4490    0.3480 c3        1 MOL      0.421561
     74 C25        -3.0790   -6.7080    0.2930 c3        1 MOL     -0.391694
     75 O14        -2.5100   -4.8270   -0.9170 oh        1 MOL     -0.596312
     76 H29        -4.2230   -3.2780    0.5460 hn        1 MOL      0.243429
     77 H30        -2.6410   -4.8980    2.3790 h1        1 MOL      0.043013
     78 H31        -1.2230   -5.7930    0.3930 h1        1 MOL      0.002733
     79 H32        -2.3650   -3.8830   -0.8220 ho        1 MOL      0.329249
     80 H33        -2.7600   -7.4010    1.0710 hc        1 MOL      0.103016
     81 H34        -4.1640   -6.5500    0.3320 hc        1 MOL      0.103016
     82 H35        -2.9840   -7.2450   -0.6500 hc        1 MOL      0.103016
     83 N9         -0.5830   -3.6410    2.2180 n         1 MOL     -0.361089
     84 C26         0.5790   -2.7360    2.2390 c3        1 MOL     -0.007566
     85 C27         1.3120   -3.0310    0.9090 c         1 MOL      0.707542
     86 O15         1.6150   -4.2040    0.7820 o         1 MOL     -0.621541
     87 C28         1.4080   -2.7880    3.5870 c3        1 MOL      0.146777
     88 C29         0.5450   -2.4680    4.7830 c3        1 MOL      0.073326
     89 C30         2.5200   -1.7420    3.6630 c3        1 MOL     -0.428957
     90 C31         1.2380   -2.7110    6.1240 c3        1 MOL     -0.157079
     91 H36        -0.4240   -4.6070    2.4440 hn        1 MOL      0.236903
     92 H37         0.1960   -1.7300    2.1210 h1        1 MOL      0.003277
     93 H38         1.8270   -3.7930    3.6730 hc        1 MOL     -0.006494
     94 H39        -0.3730   -3.0400    4.7930 hc        1 MOL     -0.016180
     95 H40         0.3280   -1.3990    4.7390 hc        1 MOL     -0.016180
     96 H41         3.1000   -1.7420    2.7350 hc        1 MOL      0.095261
     97 H42         2.1250   -0.7380    3.7800 hc        1 MOL      0.095261
     98 H43         3.2350   -1.8970    4.4740 hc        1 MOL      0.095261
     99 H44         1.5500   -3.7560    6.2000 hc        1 MOL      0.033069
    100 H45         2.0890   -2.0280    6.2260 hc        1 MOL      0.033069
    101 H46         0.6330   -2.4720    6.9980 hc        1 MOL      0.033069
    102 N10         1.6000   -1.9710    0.1400 n         1 MOL     -0.554051
    103 C32         2.5640   -1.9890   -1.0110 c3        1 MOL      0.007248
    104 C33         3.9720   -1.6440   -0.7400 c         1 MOL      0.575165
    105 O16         4.2120   -0.9820    0.2670 o         1 MOL     -0.433783
    106 C34         1.9430   -0.9430   -1.9250 c3        1 MOL     -0.329731
    107 C35         0.5810   -1.2370   -2.4400 c         1 MOL      0.754601
    108 O17         0.5390   -1.7730   -3.5700 o         1 MOL     -0.660546
    109 O18        -0.3980   -0.9180   -1.6700 o         1 MOL     -0.660546
    110 H47         1.2150   -1.0540    0.3120 hn        1 MOL      0.452182
    111 H48         2.6390   -2.9690   -1.4960 h1        1 MOL      0.069639
    112 H49         2.6450   -0.8450   -2.7510 hc        1 MOL      0.076170
    113 H50         1.8940    0.0080   -1.3870 hc        1 MOL      0.076170
    114 N11         4.9420   -1.9770   -1.5820 n         1 MOL     -0.636257
    115 C36         6.3640   -1.7420   -1.3430 c3        1 MOL      0.453196
    116 C37         6.6880   -0.2620   -1.0590 c         1 MOL      0.285971
    117 O19         7.2480   -0.0000    0.0350 o         1 MOL     -0.500471
    118 C38         7.1730   -2.4320   -2.3810 c3        1 MOL     -0.476884
    119 C39         8.6890   -2.2970   -2.1350 ca        1 MOL      0.262709
    120 C40         9.3320   -1.2360   -2.7680 ca        1 MOL     -0.280050
    121 C41         9.4410   -3.1380   -1.3180 ca        1 MOL     -0.280050
    122 C42        10.6650   -0.9700   -2.5290 ca        1 MOL      0.035766
    123 C43        10.7730   -2.9470   -1.1670 ca        1 MOL      0.035766
    124 C44        11.4310   -1.8790   -1.7730 ca        1 MOL     -0.276357
    125 H51         4.7100   -2.5840   -2.3470 hn        1 MOL      0.316192
    126 H52         6.5330   -2.1840   -0.3560 h1        1 MOL      0.021775
    127 H53         6.8460   -2.0210   -3.3380 hc        1 MOL      0.131144
    128 H54         7.0000   -3.4840   -2.1660 hc        1 MOL      0.131144
    129 H55         8.7680   -0.6520   -3.4810 ha        1 MOL      0.133856
    130 H56         8.9780   -4.0190   -0.9040 ha        1 MOL      0.133856
    131 H57        11.1410   -0.1380   -3.0340 ha        1 MOL      0.077134
    132 H58        11.3610   -3.5950   -0.5290 ha        1 MOL      0.077134
    133 H59        12.4400   -1.5920   -1.5420 ha        1 MOL      0.140644
    134 N12         6.3330    0.7330   -1.8830 n         1 MOL     -0.056903
    135 C45         6.5540    2.1800   -1.6420 c3        1 MOL     -0.023418
    136 C46         5.9700    2.5590   -0.3130 c         1 MOL      0.343878
    137 O20         6.4820    3.4550    0.3530 o         1 MOL     -0.510264
    138 C47         5.7960    2.9610   -2.7230 c3        1 MOL      0.045343
    139 C48         5.5700    1.9750   -3.7840 c3        1 MOL     -0.071619
    140 C49         5.4580    0.6210   -3.0870 c3        1 MOL     -0.063680
    141 H60         7.6080    2.4010   -1.7240 h1        1 MOL      0.066817
    142 H61         4.8510    3.2950   -2.2800 hc        1 MOL      0.024471
    143 H62         6.2200    3.9180   -3.0260 hc        1 MOL      0.024471
    144 H63         4.6390    2.1860   -4.3200 hc        1 MOL      0.035789
    145 H64         6.3800    1.9420   -4.5150 hc        1 MOL      0.035789
    146 H65         4.4260    0.4000   -2.8110 h1        1 MOL      0.049151
    147 H66         5.8360   -0.1650   -3.7360 h1        1 MOL      0.049151
    148 N13         4.8210    1.9600    0.1830 n         1 MOL     -0.140871
    149 C50         4.2250    2.3370    1.5460 c3        1 MOL     -0.145511
    150 C51         4.9730    1.6870    2.7750 c         1 MOL      0.475506
    151 O21         5.0300    2.2990    3.8400 o         1 MOL     -0.574928
    152 C52         2.7730    1.7230    1.5820 c3        1 MOL     -0.050016
    153 C53         1.9140    2.3270    0.4720 c3        1 MOL     -0.055866
    154 C54         0.5510    1.6210    0.3580 c         1 MOL      0.490553
    155 O22        -0.3730    2.1370   -0.3030 o         1 MOL     -0.583625
    156 O23         0.3140    0.5150    0.9400 o         1 MOL     -0.583625
    157 H67         4.2460    1.4110   -0.4360 hn        1 MOL      0.233340
    158 H68         4.2820    3.4150    1.6650 h1        1 MOL      0.127382
    159 H69         2.3910    1.9460    2.5730 hc        1 MOL      0.043551
    160 H70         2.7250    0.6540    1.3760 hc        1 MOL      0.043551
    161 H71         2.4920    2.2510   -0.4490 hc        1 MOL      0.011190
    162 H72         1.7370    3.3670    0.7510 hc        1 MOL      0.011190
    163 N14         5.5060    0.5070    2.5720 n         1 MOL      0.000805
    164 C55         6.4240   -0.1590    3.4700 c3        1 MOL     -0.317086
    165 H73         7.4470    0.0080    3.1320 h1        1 MOL      0.099763
    166 H74         6.3040    0.2410    4.4770 h1        1 MOL      0.099763
    167 H75         6.2140   -1.2290    3.4760 h1        1 MOL      0.099763
    168 H76         5.4700    0.0910    1.6460 hn        1 MOL      0.118206
    169 Ca1        -2.1540    0.0320   -0.0540 Ca        1 MOL      1.684476
    170 O24        -1.7310    0.2060    2.7140 oh        1 MOL     -0.740165
    171 H77        -0.8200    0.4640    2.5430 ho        1 MOL      0.358854
    172 H78        -1.8730    0.4410    3.6370 ho        1 MOL      0.358854
    173 O25        -4.6420   -0.4810    1.3720 oh        1 MOL     -0.740165
    174 H79        -4.8350    0.3760    1.7410 ho        1 MOL      0.358854
    175 H80        -5.0140   -1.1040    2.0000 ho        1 MOL      0.358854
@<TRIPOS>BOND
     1    1    2 1   
     2    1    4 1   
     3    1    5 1   
     4    1    6 1   
     5    2    3 2   
     6    2    7 1   
     7    7    8 1   
     8    7   15 1   
     9    8    9 1   
    10    8   11 1   
    11    8   16 1   
    12    9   10 2   
    13    9   19 1   
    14   11   12 1   
    15   11   17 1   
    16   11   18 1   
    17   12   13 1   
    18   12   14 1   
    19   19   20 1   
    20   19   24 1   
    21   20   21 1   
    22   20   23 1   
    23   20   25 1   
    24   21   22 2   
    25   21   29 1   
    26   23   26 1   
    27   23   27 1   
    28   23   28 1   
    29   29   30 1   
    30   29   37 1   
    31   30   31 1   
    32   30   33 1   
    33   30   38 1   
    34   31   32 2   
    35   31   41 1   
    36   33   34 1   
    37   33   39 1   
    38   33   40 1   
    39   34   35 1   
    40   34   36 1   
    41   41   42 1   
    42   41   45 1   
    43   42   43 1   
    44   42   46 1   
    45   42   47 1   
    46   43   44 2   
    47   43   48 1   
    48   48   49 1   
    49   48   56 1   
    50   49   50 1   
    51   49   52 1   
    52   49   57 1   
    53   50   51 2   
    54   50   62 1   
    55   52   53 1   
    56   52   58 1   
    57   52   59 1   
    58   53   54 1   
    59   53   55 2   
    60   54   60 1   
    61   54   61 1   
    62   62   63 1   
    63   62   66 1   
    64   63   64 1   
    65   63   67 1   
    66   63   68 1   
    67   64   65 2   
    68   64   69 1   
    69   69   70 1   
    70   69   76 1   
    71   70   71 1   
    72   70   73 1   
    73   70   77 1   
    74   71   72 2   
    75   71   83 1   
    76   73   74 1   
    77   73   75 1   
    78   73   78 1   
    79   74   80 1   
    80   74   81 1   
    81   74   82 1   
    82   75   79 1   
    83   83   84 1   
    84   83   91 1   
    85   84   85 1   
    86   84   87 1   
    87   84   92 1   
    88   85   86 2   
    89   85  102 1   
    90   87   88 1   
    91   87   89 1   
    92   87   93 1   
    93   88   90 1   
    94   88   94 1   
    95   88   95 1   
    96   89   96 1   
    97   89   97 1   
    98   89   98 1   
    99   90   99 1   
   100   90  100 1   
   101   90  101 1   
   102  102  103 1   
   103  102  110 1   
   104  103  104 1   
   105  103  106 1   
   106  103  111 1   
   107  104  105 2   
   108  104  114 1   
   109  106  107 1   
   110  106  112 1   
   111  106  113 1   
   112  107  108 1   
   113  107  109 1   
   114  114  115 1   
   115  114  125 1   
   116  115  116 1   
   117  115  118 1   
   118  115  126 1   
   119  116  117 2   
   120  116  134 1   
   121  118  119 1   
   122  118  127 1   
   123  118  128 1   
   124  119  120 ar  
   125  119  121 ar  
   126  120  122 ar  
   127  120  129 1   
   128  121  123 ar  
   129  121  130 1   
   130  122  124 ar  
   131  122  131 1   
   132  123  124 ar  
   133  123  132 1   
   134  124  133 1   
   135  134  135 1   
   136  134  140 1   
   137  135  136 1   
   138  135  138 1   
   139  135  141 1   
   140  136  137 2   
   141  136  148 1   
   142  138  139 1   
   143  138  142 1   
   144  138  143 1   
   145  139  140 1   
   146  139  144 1   
   147  139  145 1   
   148  140  146 1   
   149  140  147 1   
   150  148  149 1   
   151  148  157 1   
   152  149  150 1   
   153  149  152 1   
   154  149  158 1   
   155  150  151 2   
   156  150  163 1   
   157  152  153 1   
   158  152  159 1   
   159  152  160 1   
   160  153  154 1   
   161  153  161 1   
   162  153  162 1   
   163  154  155 1   
   164  154  156 1   
   165  163  164 1   
   166  163  168 1   
   167  164  165 1   
   168  164  166 1   
   169  164  167 1   
   170  170  171 1   
   171  170  172 1   
   172  173  174 1   
   173  173  175 1   
@<TRIPOS>SUBSTRUCTURE
     1 MOL         1 TEMP              0 ****  ****    0 ROOT
