@<TRIPOS>MOLECULE
MOL
  175   173     1     0     0
SMALL
resp


@<TRIPOS>ATOM
      1 C1         -1.2830   -3.8700    5.4910 c3        1 MOL     -0.449147
      2 C2         -0.6710   -3.8870    4.0700 c         1 MOL      0.667746
      3 O1         -1.4170   -4.0560    3.0970 o         1 MOL     -0.508021
      4 H1         -0.5280   -4.1780    6.2150 hc        1 MOL      0.114470
      5 H2         -1.6250   -2.8630    5.7290 hc        1 MOL      0.114470
      6 H3         -2.1260   -4.5600    5.5320 hc        1 MOL      0.114470
      7 N1          0.6670   -3.8430    3.9520 n         1 MOL     -0.587514
      8 C3          1.3620   -3.5540    2.6610 c3        1 MOL      0.252919
      9 C4          1.3360   -4.6800    1.5980 c         1 MOL      0.373620
     10 O2          1.3430   -5.8580    1.9950 o         1 MOL     -0.540941
     11 C5          2.7510   -3.1740    3.0690 c3        1 MOL     -0.342016
     12 C6          3.6100   -2.5160    2.0240 c         1 MOL      0.882753
     13 O3          4.7400   -2.1910    2.3980 o         1 MOL     -0.700658
     14 O4          3.1680   -2.3260    0.8550 o         1 MOL     -0.700658
     15 H4          1.1190   -3.8570    4.8490 hn        1 MOL      0.323028
     16 H5          0.9570   -2.6580    2.1820 h1        1 MOL     -0.014202
     17 H6          3.3100   -4.0670    3.3840 hc        1 MOL      0.065784
     18 H7          2.7540   -2.5690    3.9820 hc        1 MOL      0.065784
     19 N2          1.3250   -4.3140    0.3030 n         1 MOL     -0.284847
     20 C7          1.5960   -5.1330   -0.9150 c3        1 MOL      0.086260
     21 C8          2.9610   -4.8820   -1.7000 c         1 MOL      0.391643
     22 O5          3.1980   -5.6410   -2.6660 o         1 MOL     -0.549656
     23 C9          0.3880   -5.1250   -1.9000 c3        1 MOL     -0.182210
     24 H8          1.4760   -3.3320    0.1480 hn        1 MOL      0.493271
     25 H9          1.6310   -6.1900   -0.6280 h1        1 MOL      0.037451
     26 H10         0.3030   -4.1310   -2.3530 hc        1 MOL      0.055895
     27 H11         0.4670   -5.8260   -2.7260 hc        1 MOL      0.055895
     28 H12        -0.5440   -5.1190   -1.3360 hc        1 MOL      0.055895
     29 N3          3.7780   -3.8540   -1.4280 n         1 MOL     -0.227990
     30 C10         5.0050   -3.5800   -2.3100 c3        1 MOL      0.109258
     31 C11         6.1980   -2.8530   -1.4890 c         1 MOL      0.362183
     32 O6          7.2560   -2.8380   -2.0690 o         1 MOL     -0.542940
     33 C12         4.5870   -2.6880   -3.5520 c3        1 MOL     -0.089074
     34 C13         3.7470   -1.5200   -3.0400 c         1 MOL      0.756390
     35 O7          2.9060   -1.0490   -3.7980 o         1 MOL     -0.691889
     36 O8          3.7320   -1.0800   -1.8600 o         1 MOL     -0.691889
     37 H13         3.5610   -3.2410   -0.6560 hn        1 MOL     -0.016445
     38 H14         5.3640   -4.5590   -2.6100 h1        1 MOL      0.047395
     39 H15         3.9970   -3.1760   -4.3250 hc        1 MOL      0.021327
     40 H16         5.4550   -2.3080   -4.0860 hc        1 MOL      0.021327
     41 N4          5.9510   -2.1950   -0.3600 n         1 MOL     -0.130882
     42 C14         7.0650   -1.4730    0.3070 c3        1 MOL     -0.305614
     43 C15         7.2330   -0.0770   -0.2680 c         1 MOL      0.487950
     44 O9          8.2280    0.5780    0.0480 o         1 MOL     -0.621063
     45 H17         4.9960   -2.1490   -0.0220 hn        1 MOL      0.121018
     46 H18         7.9750   -2.0660    0.2180 h1        1 MOL      0.153408
     47 H19         6.8600   -1.5380    1.3770 h1        1 MOL      0.153408
     48 N5          6.3060    0.4400   -1.0940 n         1 MOL     -0.067691
     49 C16         6.4180    1.7020   -1.8350 c3        1 MOL     -0.100620
     50 C17         6.5160    2.9980   -1.0090 c         1 MOL      0.394667
     51 O10         6.6050    4.0730   -1.6080 o         1 MOL     -0.516774
     52 C18         5.3570    1.7560   -2.9150 c3        1 MOL      0.029011
     53 C19         3.9610    2.1100   -2.3510 c         1 MOL      0.572808
     54 N6          3.0050    2.2920   -3.1930 n         1 MOL     -0.645546
     55 O11         3.6860    2.0750   -1.1210 o         1 MOL     -0.449516
     56 H20         5.4890   -0.1140   -1.3070 hn        1 MOL      0.080277
     57 H21         7.4210    1.5510   -2.2350 h1        1 MOL      0.094655
     58 H22         5.3580    0.8040   -3.4440 hc        1 MOL      0.003947
     59 H23         5.7120    2.4810   -3.6520 hc        1 MOL      0.003947
     60 H24         3.0740    2.3130   -4.2030 hn        1 MOL      0.333274
     61 H25         2.0850    2.0070   -2.8650 hn        1 MOL      0.333274
     62 N7          6.4610    2.8870    0.3380 n         1 MOL     -0.048649
     63 C20         6.3080    3.7950    1.3970 c3        1 MOL     -0.338774
     64 C21         4.9430    4.4700    1.5810 c         1 MOL      0.655760
     65 O12         4.8470    5.5440    2.1860 o         1 MOL     -0.603840
     66 H26         6.2740    1.9380    0.6290 hn        1 MOL      0.170759
     67 H27         7.0830    4.5300    1.1650 h1        1 MOL      0.115150
     68 H28         6.4600    3.3120    2.3630 h1        1 MOL      0.115150
     69 N8          3.8040    4.0030    1.0070 n         1 MOL     -0.265554
     70 C22         2.4250    4.4840    1.2830 c3        1 MOL     -0.379953
     71 C23         1.3720    3.3440    1.2520 c         1 MOL      0.810936
     72 O13         1.5570    2.3310    0.5560 o         1 MOL     -0.718313
     73 C24         2.0150    5.4950    0.1490 c3        1 MOL      0.603814
     74 C25         2.9060    6.7500    0.0770 c3        1 MOL     -0.531735
     75 O14         2.2620    4.9680   -1.1500 oh        1 MOL     -0.593721
     76 H29         4.0180    3.2780    0.3240 hn        1 MOL      0.149726
     77 H30         2.3580    5.0750    2.1970 h1        1 MOL      0.131681
     78 H31         0.9920    5.7740    0.3680 h1        1 MOL     -0.064017
     79 H32         2.1370    4.0150   -1.0970 ho        1 MOL      0.308513
     80 H33         3.8460    6.4820   -0.4000 hc        1 MOL      0.134222
     81 H34         2.3710    7.4850   -0.5290 hc        1 MOL      0.134222
     82 H35         2.9330    7.1310    1.0960 hc        1 MOL      0.134222
     83 N9          0.2630    3.6680    1.9040 n         1 MOL     -0.659030
     84 C26        -0.8840    2.8100    2.0100 c3        1 MOL     -0.281953
     85 C27        -1.6370    2.8730    0.6720 c         1 MOL      0.740095
     86 O15        -2.1920    3.9380    0.3800 o         1 MOL     -0.633856
     87 C28        -1.8140    3.2150    3.1960 c3        1 MOL      0.456503
     88 C29        -1.1610    3.3640    4.5900 c3        1 MOL      0.076431
     89 C30        -2.9850    2.2070    3.2380 c3        1 MOL     -0.589055
     90 C31        -2.1110    3.6410    5.6880 c3        1 MOL     -0.081538
     91 H36         0.1800    4.6390    2.1900 hn        1 MOL      0.359600
     92 H37        -0.5140    1.7870    2.0950 h1        1 MOL      0.122717
     93 H38        -2.3010    4.1660    2.9950 hc        1 MOL     -0.047634
     94 H39        -0.5300    4.2360    4.3790 hc        1 MOL     -0.041682
     95 H40        -0.6590    2.4340    4.8120 hc        1 MOL     -0.041682
     96 H41        -3.2800    1.8490    2.2500 hc        1 MOL      0.119922
     97 H42        -2.6100    1.3270    3.7630 hc        1 MOL      0.119922
     98 H43        -3.8250    2.6500    3.7730 hc        1 MOL      0.119922
     99 H44        -1.5470    4.1310    6.4880 hc        1 MOL      0.011018
    100 H45        -2.7320    4.4010    5.2180 hc        1 MOL      0.011018
    101 H46        -2.6090    2.7630    6.0860 hc        1 MOL      0.011018
    102 N10        -1.4600    1.8820   -0.1710 n         1 MOL     -0.304433
    103 C32        -2.2860    1.6790   -1.3800 c3        1 MOL     -0.163749
    104 C33        -3.7650    1.3070   -1.0570 c         1 MOL      0.330865
    105 O16        -3.9980    0.6290   -0.0820 o         1 MOL     -0.177906
    106 C34        -1.5840    0.7320   -2.3630 c3        1 MOL     -0.269052
    107 C35        -0.1630    1.1660   -2.8290 c         1 MOL      0.753506
    108 O17         0.8080    1.0060   -2.0450 o         1 MOL     -0.664788
    109 O18        -0.0920    1.5910   -3.9990 o         1 MOL     -0.664788
    110 H47        -0.8010    1.1650    0.1240 hn        1 MOL      0.356606
    111 H48        -2.3890    2.6570   -1.8620 h1        1 MOL      0.091293
    112 H49        -2.1410    0.5810   -3.2900 hc        1 MOL      0.091693
    113 H50        -1.4780   -0.2620   -1.9250 hc        1 MOL      0.091693
    114 N11        -4.6830    1.6620   -1.9710 n         1 MOL     -0.451972
    115 C36        -6.0940    1.4690   -1.6280 c3        1 MOL      0.069713
    116 C37        -6.5380   -0.0120   -1.2720 c         1 MOL      0.338897
    117 O19        -7.3810   -0.2010   -0.4350 o         1 MOL     -0.424050
    118 C38        -7.0360    2.0750   -2.7120 c3        1 MOL     -0.127110
    119 C39        -8.4970    2.0340   -2.2610 ca        1 MOL      0.005122
    120 C40        -9.4260    1.1360   -2.7700 ca        1 MOL     -0.089836
    121 C41        -8.9340    2.9950   -1.3930 ca        1 MOL     -0.089836
    122 C42       -10.7540    1.1510   -2.3260 ca        1 MOL     -0.138998
    123 C43       -10.2910    3.0740   -0.9460 ca        1 MOL     -0.138998
    124 C44       -11.1900    2.0680   -1.3900 ca        1 MOL     -0.122845
    125 H51        -4.3600    2.2810   -2.7030 hn        1 MOL      0.327893
    126 H52        -6.3040    2.0400   -0.7310 h1        1 MOL      0.104157
    127 H53        -6.9890    1.6490   -3.7080 hc        1 MOL      0.071034
    128 H54        -6.7900    3.0850   -3.0460 hc        1 MOL      0.071034
    129 H55        -9.2120    0.4640   -3.5840 ha        1 MOL      0.095276
    130 H56        -8.2930    3.7820   -1.0360 ha        1 MOL      0.095276
    131 H57       -11.4040    0.4070   -2.7620 ha        1 MOL      0.114397
    132 H58       -10.5800    3.8180   -0.2210 ha        1 MOL      0.114397
    133 H59       -12.1660    2.0070   -0.9240 ha        1 MOL      0.111682
    134 N12        -5.8970   -1.1190   -1.8430 n         1 MOL     -0.171913
    135 C45        -6.2230   -2.4850   -1.4060 c3        1 MOL      0.065741
    136 C46        -5.6740   -2.8200    0.0150 c         1 MOL      0.246645
    137 O20        -6.2800   -3.5350    0.8080 o         1 MOL     -0.489092
    138 C47        -5.4810   -3.3720   -2.3380 c3        1 MOL      0.012303
    139 C48        -4.9740   -2.4870   -3.5070 c3        1 MOL     -0.042769
    140 C49        -4.8640   -1.1620   -2.8260 c3        1 MOL      0.092076
    141 H60        -7.2870   -2.6620   -1.3680 h1        1 MOL      0.061830
    142 H61        -4.6250   -3.8670   -1.8680 hc        1 MOL     -0.000126
    143 H62        -6.1240   -4.0960   -2.8440 hc        1 MOL     -0.000126
    144 H63        -4.0390   -2.7710   -3.9690 hc        1 MOL      0.028286
    145 H64        -5.7500   -2.3560   -4.2600 hc        1 MOL      0.028286
    146 H65        -3.9090   -1.0150   -2.3330 h1        1 MOL      0.004802
    147 H66        -5.0440   -0.4950   -3.6690 h1        1 MOL      0.004802
    148 N13        -4.5170   -2.2100    0.3790 n         1 MOL      0.001963
    149 C50        -3.8740   -2.2460    1.6870 c3        1 MOL     -0.100378
    150 C51        -4.8550   -1.4970    2.6640 c         1 MOL      0.505457
    151 O21        -5.0030   -2.0230    3.7550 o         1 MOL     -0.564257
    152 C52        -2.4490   -1.6130    1.6000 c3        1 MOL     -0.030658
    153 C53        -1.6310   -2.1770    0.3870 c3        1 MOL      0.026726
    154 C54        -0.3790   -1.3830    0.1090 c         1 MOL      0.469106
    155 O22         0.5210   -1.7220   -0.7310 o         1 MOL     -0.702928
    156 O23        -0.0250   -0.3750    0.7870 o         1 MOL     -0.702928
    157 H67        -4.0650   -1.5690   -0.2650 hn        1 MOL      0.103081
    158 H68        -3.7530   -3.2610    2.0550 h1        1 MOL      0.089130
    159 H69        -1.9040   -1.7350    2.5430 hc        1 MOL      0.006041
    160 H70        -2.5850   -0.5250    1.5910 hc        1 MOL      0.006041
    161 H71        -2.2070   -2.0940   -0.5280 hc        1 MOL      0.010040
    162 H72        -1.3850   -3.2300    0.5040 hc        1 MOL      0.010040
    163 N14        -5.4430   -0.3450    2.2850 n         1 MOL     -0.042986
    164 C55        -6.5210    0.3120    2.9850 c3        1 MOL     -0.267384
    165 H73        -6.3030    0.3280    4.0520 h1        1 MOL      0.091027
    166 H74        -6.6220    1.3340    2.6200 h1        1 MOL      0.091027
    167 H75        -7.4510   -0.2290    2.8120 h1        1 MOL      0.091027
    168 H76        -5.1950   -0.0330    1.3640 hn        1 MOL      0.039521
    169 Ca1         2.2870    0.0070   -0.0920 Ca        1 MOL      1.722574
    170 O24         1.8320   -0.0870    2.6640 oh        1 MOL     -0.820245
    171 H77         1.9500   -0.1540    3.6170 ho        1 MOL      0.394470
    172 H78         0.8830   -0.1700    2.5350 ho        1 MOL      0.394470
    173 O25         4.5910    0.2890    1.5600 oh        1 MOL     -0.820245
    174 H79         4.6010   -0.6450    1.7680 ho        1 MOL      0.394470
    175 H80         5.1650    0.6860    2.2180 ho        1 MOL      0.394470
@<TRIPOS>BOND
     1    1    2 1   
     2    1    4 1   
     3    1    5 1   
     4    1    6 1   
     5    2    3 2   
     6    2    7 1   
     7    7    8 1   
     8    7   15 1   
     9    8    9 1   
    10    8   11 1   
    11    8   16 1   
    12    9   10 2   
    13    9   19 1   
    14   11   12 1   
    15   11   17 1   
    16   11   18 1   
    17   12   13 1   
    18   12   14 1   
    19   19   20 1   
    20   19   24 1   
    21   20   21 1   
    22   20   23 1   
    23   20   25 1   
    24   21   22 2   
    25   21   29 1   
    26   23   26 1   
    27   23   27 1   
    28   23   28 1   
    29   29   30 1   
    30   29   37 1   
    31   30   31 1   
    32   30   33 1   
    33   30   38 1   
    34   31   32 2   
    35   31   41 1   
    36   33   34 1   
    37   33   39 1   
    38   33   40 1   
    39   34   35 1   
    40   34   36 1   
    41   41   42 1   
    42   41   45 1   
    43   42   43 1   
    44   42   46 1   
    45   42   47 1   
    46   43   44 2   
    47   43   48 1   
    48   48   49 1   
    49   48   56 1   
    50   49   50 1   
    51   49   52 1   
    52   49   57 1   
    53   50   51 2   
    54   50   62 1   
    55   52   53 1   
    56   52   58 1   
    57   52   59 1   
    58   53   54 1   
    59   53   55 2   
    60   54   60 1   
    61   54   61 1   
    62   62   63 1   
    63   62   66 1   
    64   63   64 1   
    65   63   67 1   
    66   63   68 1   
    67   64   65 2   
    68   64   69 1   
    69   69   70 1   
    70   69   76 1   
    71   70   71 1   
    72   70   73 1   
    73   70   77 1   
    74   71   72 2   
    75   71   83 1   
    76   73   74 1   
    77   73   75 1   
    78   73   78 1   
    79   74   80 1   
    80   74   81 1   
    81   74   82 1   
    82   75   79 1   
    83   83   84 1   
    84   83   91 1   
    85   84   85 1   
    86   84   87 1   
    87   84   92 1   
    88   85   86 2   
    89   85  102 1   
    90   87   88 1   
    91   87   89 1   
    92   87   93 1   
    93   88   90 1   
    94   88   94 1   
    95   88   95 1   
    96   89   96 1   
    97   89   97 1   
    98   89   98 1   
    99   90   99 1   
   100   90  100 1   
   101   90  101 1   
   102  102  103 1   
   103  102  110 1   
   104  103  104 1   
   105  103  106 1   
   106  103  111 1   
   107  104  105 2   
   108  104  114 1   
   109  106  107 1   
   110  106  112 1   
   111  106  113 1   
   112  107  108 1   
   113  107  109 1   
   114  114  115 1   
   115  114  125 1   
   116  115  116 1   
   117  115  118 1   
   118  115  126 1   
   119  116  117 2   
   120  116  134 1   
   121  118  119 1   
   122  118  127 1   
   123  118  128 1   
   124  119  120 ar  
   125  119  121 ar  
   126  120  122 ar  
   127  120  129 1   
   128  121  123 ar  
   129  121  130 1   
   130  122  124 ar  
   131  122  131 1   
   132  123  124 ar  
   133  123  132 1   
   134  124  133 1   
   135  134  135 1   
   136  134  140 1   
   137  135  136 1   
   138  135  138 1   
   139  135  141 1   
   140  136  137 2   
   141  136  148 1   
   142  138  139 1   
   143  138  142 1   
   144  138  143 1   
   145  139  140 1   
   146  139  144 1   
   147  139  145 1   
   148  140  146 1   
   149  140  147 1   
   150  148  149 1   
   151  148  157 1   
   152  149  150 1   
   153  149  152 1   
   154  149  158 1   
   155  150  151 2   
   156  150  163 1   
   157  152  153 1   
   158  152  159 1   
   159  152  160 1   
   160  153  154 1   
   161  153  161 1   
   162  153  162 1   
   163  154  155 1   
   164  154  156 1   
   165  163  164 1   
   166  163  168 1   
   167  164  165 1   
   168  164  166 1   
   169  164  167 1   
   170  170  171 1   
   171  170  172 1   
   172  173  174 1   
   173  173  175 1   
@<TRIPOS>SUBSTRUCTURE
     1 MOL         1 TEMP              0 ****  ****    0 ROOT
