@<TRIPOS>MOLECULE
MOL
  189   185     1     0     0
SMALL
resp


@<TRIPOS>ATOM
      1 C1          1.4360   -2.9570    6.2910 c3        1 MOL     -0.430426
      2 C2          1.1840   -2.7820    4.8010 c         1 MOL      0.896895
      3 O1          0.7930   -1.7470    4.3050 o         1 MOL     -0.700058
      4 H1          0.6980   -2.3850    6.8540 hc        1 MOL      0.106576
      5 H2          1.3540   -4.0120    6.5530 hc        1 MOL      0.106576
      6 H3          2.4350   -2.5980    6.5360 hc        1 MOL      0.106576
      7 N1          1.5250   -3.7430    3.9470 n         1 MOL     -0.755001
      8 C3          2.0660   -3.4820    2.6020 c3        1 MOL      0.113732
      9 C4          1.9820   -4.7210    1.6860 c         1 MOL      0.465010
     10 O2          2.2590   -5.8370    2.1690 o         1 MOL     -0.568886
     11 C5          3.5720   -3.2000    2.8030 c3        1 MOL     -0.047599
     12 C6          4.3590   -2.8310    1.5580 c         1 MOL      0.573572
     13 O3          5.4380   -3.3850    1.3250 o         1 MOL     -0.629259
     14 O4          3.6610   -2.2410    0.6870 o         1 MOL     -0.629259
     15 H4          1.8130   -4.6480    4.2890 hn        1 MOL      0.348204
     16 H5          1.7260   -2.5390    2.1670 h1        1 MOL      0.175925
     17 H6          3.9920   -4.0910    3.2580 hc        1 MOL     -0.022839
     18 H7          3.7380   -2.4100    3.5410 hc        1 MOL     -0.022839
     19 N2          1.5870   -4.5390    0.4050 n         1 MOL     -0.073407
     20 C7          1.6270   -5.5110   -0.6750 c3        1 MOL     -0.160149
     21 C8          2.5020   -5.2300   -1.8260 c         1 MOL      0.460564
     22 O5          2.6820   -6.0360   -2.7730 o         1 MOL     -0.586679
     23 C9          0.2100   -6.0050   -0.9820 c3        1 MOL      0.176583
     24 C10        -0.6400   -5.1200   -1.9550 c3        1 MOL      0.027169
     25 C11        -0.5940   -6.4280    0.2500 c3        1 MOL     -0.101495
     26 C12        -1.9210   -5.7930   -2.4830 c3        1 MOL     -0.205726
     27 H8          1.3970   -3.5810    0.1490 hn        1 MOL      0.093612
     28 H9          2.1800   -6.3070   -0.1690 h1        1 MOL      0.111827
     29 H10         0.3740   -6.9620   -1.4780 hc        1 MOL     -0.041747
     30 H11        -0.1020   -4.7990   -2.8520 hc        1 MOL      0.031829
     31 H12        -0.9310   -4.2040   -1.4450 hc        1 MOL      0.031829
     32 H13        -1.4270   -7.1090    0.0860 hc        1 MOL      0.015048
     33 H14         0.0920   -6.9880    0.8840 hc        1 MOL      0.015048
     34 H15        -0.9370   -5.5060    0.7110 hc        1 MOL      0.015048
     35 H16        -2.3600   -5.0550   -3.1500 hc        1 MOL      0.045226
     36 H17        -1.7530   -6.7000   -3.0620 hc        1 MOL      0.045226
     37 H18        -2.6420   -5.9650   -1.6910 hc        1 MOL      0.045226
     38 N3          3.1560   -4.0590   -1.9040 n         1 MOL     -0.321537
     39 C13         4.0110   -3.7760   -3.1110 c3        1 MOL      0.086834
     40 C14         5.3130   -3.1050   -2.8700 c         1 MOL      0.335218
     41 O6          6.1390   -3.1070   -3.7380 o         1 MOL     -0.541108
     42 C15         3.1340   -2.8140   -4.0300 c3        1 MOL     -0.514049
     43 C16         2.7230   -1.5200   -3.2960 c         1 MOL      0.824107
     44 O7          3.1580   -1.1830   -2.1190 o         1 MOL     -0.689650
     45 O8          1.8960   -0.8150   -3.8890 o         1 MOL     -0.689650
     46 H19         3.0060   -3.3150   -1.2420 hn        1 MOL      0.278557
     47 H20         4.3100   -4.7190   -3.5580 h1        1 MOL      0.123169
     48 H21         2.2670   -3.4100   -4.2920 hc        1 MOL      0.151217
     49 H22         3.7690   -2.4360   -4.8320 hc        1 MOL      0.151217
     50 N4          5.6380   -2.5700   -1.6590 n         1 MOL      0.030910
     51 C17         6.9240   -2.0750   -1.2470 c3        1 MOL     -0.228507
     52 C18         7.2790   -0.6100   -1.6970 c         1 MOL      0.430320
     53 O9          8.4920   -0.2780   -1.9040 o         1 MOL     -0.598605
     54 H23         4.9260   -2.6860   -0.9620 hn        1 MOL      0.027148
     55 H24         7.6520   -2.7260   -1.7210 h1        1 MOL      0.099993
     56 H25         6.9550   -2.0000   -0.1580 h1        1 MOL      0.099993
     57 N5          6.2970    0.2760   -1.9860 n         1 MOL     -0.028364
     58 C19         6.4640    1.5900   -2.6210 c3        1 MOL     -0.232907
     59 C20         6.6320    2.7780   -1.6780 c         1 MOL      0.504520
     60 O10         6.7730    3.9270   -2.1260 o         1 MOL     -0.509296
     61 C21         5.1750    1.8910   -3.4590 c3        1 MOL     -0.126901
     62 C22         3.9490    2.1590   -2.5650 c         1 MOL      0.673922
     63 O11         3.9590    1.6880   -1.3930 o         1 MOL     -0.694516
     64 O12         2.9580    2.8390   -3.0040 o         1 MOL     -0.694516
     65 H26         5.3340   -0.0430   -1.9530 hn        1 MOL      0.158271
     66 H27         7.3240    1.6310   -3.2770 h1        1 MOL      0.145517
     67 H28         4.9880    1.0200   -4.0930 hc        1 MOL      0.060442
     68 H29         5.2890    2.7350   -4.1380 hc        1 MOL      0.060442
     69 N6          6.5780    2.5860   -0.3050 n         1 MOL     -0.363081
     70 C23         6.8690    3.5720    0.7780 c3        1 MOL     -0.191206
     71 C24         5.6780    4.4450    1.2030 c         1 MOL      0.461964
     72 O13         5.8100    5.4630    1.9280 o         1 MOL     -0.601895
     73 H30         6.3340    1.6780    0.0760 hn        1 MOL      0.230932
     74 H31         7.6150    4.3260    0.5310 h1        1 MOL      0.111190
     75 H32         7.2330    2.9700    1.6130 h1        1 MOL      0.111190
     76 N7          4.5170    4.0070    0.7160 n         1 MOL     -0.124494
     77 C25         3.2170    4.5830    0.9960 c3        1 MOL     -0.129492
     78 C26         2.3280    3.4320    1.4740 c         1 MOL      0.520630
     79 O14         2.6510    2.2520    1.3110 o         1 MOL     -0.566347
     80 C27         2.6560    5.3310   -0.1790 c3        1 MOL      0.154582
     81 C28         3.5470    6.5020   -0.7290 c3        1 MOL     -0.159299
     82 C29         3.6370    7.7260    0.1830 c         1 MOL      0.627331
     83 N8          4.5760    7.8100    1.0290 n         1 MOL     -0.729959
     84 O15         2.8770    8.6530    0.0380 o         1 MOL     -0.616201
     85 H33         4.6890    3.0990    0.3100 hn        1 MOL      0.247579
     86 H34         3.3430    5.3460    1.7720 h1        1 MOL      0.057339
     87 H35         1.6660    5.7460   -0.0370 hc        1 MOL      0.010846
     88 H36         2.6200    4.5720   -0.9600 hc        1 MOL      0.010846
     89 H37         2.9710    6.8360   -1.5900 hc        1 MOL      0.050890
     90 H38         4.5750    6.2230   -0.9610 hc        1 MOL      0.050890
     91 H39         5.1160    6.9820    1.2460 hn        1 MOL      0.337071
     92 H40         4.9470    8.6890    1.3450 hn        1 MOL      0.337071
     93 N9          1.1290    3.7720    1.9360 n         1 MOL     -0.606811
     94 C30         0.0780    2.7580    2.1980 c3        1 MOL      0.504156
     95 C31        -1.2390    3.0080    1.4420 c         1 MOL      0.297160
     96 O16        -1.6800    4.1510    1.2010 o         1 MOL     -0.575447
     97 C32        -0.1900    2.5890    3.7370 c3        1 MOL      0.153242
     98 C33        -0.4950    3.9060    4.4720 c3        1 MOL     -0.241529
     99 C34        -1.2440    1.5810    4.1150 c3        1 MOL     -0.241529
    100 H41         0.9400    4.7090    2.2660 hn        1 MOL      0.314079
    101 H42         0.5320    1.8270    1.8580 h1        1 MOL     -0.041550
    102 H43         0.7910    2.3340    4.1340 hc        1 MOL     -0.016088
    103 H44        -0.6390    3.6210    5.5180 hc        1 MOL      0.041122
    104 H45         0.2830    4.6620    4.3770 hc        1 MOL      0.041122
    105 H46        -1.3970    4.4270    4.1540 hc        1 MOL      0.041122
    106 H47        -0.8530    0.5830    3.9010 hc        1 MOL      0.041122
    107 H48        -1.4370    1.5650    5.1850 hc        1 MOL      0.041122
    108 H49        -2.1480    1.7480    3.5220 hc        1 MOL      0.041122
    109 N10        -1.8350    1.9310    0.9870 n         1 MOL     -0.072608
    110 C35        -2.8410    1.9610   -0.1530 c3        1 MOL      0.226903
    111 C36        -4.2520    1.4370    0.2800 c         1 MOL      0.223887
    112 O17        -4.3620    0.8270    1.3220 o         1 MOL     -0.333045
    113 C37        -2.1280    1.2360   -1.3510 c3        1 MOL     -0.401095
    114 C38        -3.0200    0.9970   -2.5620 c         1 MOL      0.644417
    115 N11        -3.3570    1.8800   -3.4460 n         1 MOL     -0.722316
    116 O18        -3.7110   -0.0580   -2.5630 o         1 MOL     -0.512157
    117 H50        -1.2440    1.1110    0.9910 hn        1 MOL      0.034658
    118 H51        -2.9750    2.9950   -0.4860 h1        1 MOL      0.021801
    119 H52        -1.6750    0.3020   -1.0160 hc        1 MOL      0.131957
    120 H53        -1.2600    1.8160   -1.6500 hc        1 MOL      0.131957
    121 H54        -2.8680    2.7570   -3.3220 hn        1 MOL      0.350728
    122 H55        -3.9870    1.6560   -4.2010 hn        1 MOL      0.350728
    123 N12        -5.3360    1.7130   -0.4980 n         1 MOL     -0.358618
    124 C39        -6.6740    1.1900   -0.2410 c3        1 MOL      0.234688
    125 C40        -6.6850   -0.2860    0.1160 c         1 MOL      0.253601
    126 O19        -7.4550   -0.7810    0.9380 o         1 MOL     -0.528951
    127 C41        -7.5290    1.3900   -1.5270 c3        1 MOL     -0.414085
    128 C42        -8.2410    2.7240   -1.6590 ca        1 MOL      0.327147
    129 C43        -9.2910    3.0050   -0.7980 ca        1 MOL     -0.323366
    130 C44        -7.8260    3.6590   -2.6560 ca        1 MOL     -0.323366
    131 C45       -10.1110    4.1320   -1.0760 ca        1 MOL     -0.151742
    132 C46        -8.6510    4.7840   -2.9130 ca        1 MOL     -0.151742
    133 C47        -9.7750    5.0300   -2.1200 ca        1 MOL      0.207642
    134 O20       -10.5670    6.1320   -2.3660 oh        1 MOL     -0.463919
    135 H56        -5.1210    2.1710   -1.3780 hn        1 MOL      0.191411
    136 H57        -7.0400    1.7800    0.5990 h1        1 MOL      0.067929
    137 H58        -8.2920    0.6200   -1.5220 hc        1 MOL      0.144358
    138 H59        -6.9490    1.3060   -2.4500 hc        1 MOL      0.144358
    139 H60        -9.6350    2.2580   -0.1000 ha        1 MOL      0.186840
    140 H61        -6.9670    3.3810   -3.2460 ha        1 MOL      0.186840
    141 H62       -11.0780    4.3860   -0.6690 ha        1 MOL      0.115730
    142 H63        -8.3630    5.4660   -3.7090 ha        1 MOL      0.115730
    143 H64       -10.1670    6.5870   -3.1100 ho        1 MOL      0.329283
    144 N13        -5.7760   -1.0640   -0.4990 n         1 MOL      0.183586
    145 C48        -5.7580   -2.5830   -0.1990 c3        1 MOL     -0.400325
    146 C49        -4.9100   -3.0150    1.0340 c         1 MOL      0.599080
    147 O21        -4.9940   -4.1340    1.4750 o         1 MOL     -0.560635
    148 C50        -5.3650   -3.4170   -1.4590 c3        1 MOL      0.046198
    149 C51        -6.1250   -2.9780   -2.7290 c3        1 MOL     -0.151399
    150 C52        -7.6500   -2.9350   -2.5610 c         1 MOL      0.696286
    151 O22        -8.2730   -3.9850   -2.1820 o         1 MOL     -0.735543
    152 O23        -8.2990   -1.8580   -2.7630 o         1 MOL     -0.735543
    153 H65        -5.2280   -0.6490   -1.2360 hn        1 MOL      0.114658
    154 H66        -6.7440   -2.9490    0.1060 h1        1 MOL      0.231157
    155 H67        -5.4880   -4.4850   -1.2970 hc        1 MOL      0.033173
    156 H68        -4.3120   -3.2580   -1.7140 hc        1 MOL      0.033173
    157 H69        -5.9030   -3.7130   -3.5070 hc        1 MOL     -0.010903
    158 H70        -5.7660   -2.0110   -3.0900 hc        1 MOL     -0.010903
    159 N14        -4.2500   -2.0000    1.5930 n         1 MOL     -0.241512
    160 C53        -3.2860   -2.1200    2.7200 c3        1 MOL      0.015874
    161 C54        -3.6760   -1.5440    4.0340 c         1 MOL      0.377037
    162 O24        -3.5010   -2.1530    5.1120 o         1 MOL     -0.574656
    163 C55        -1.9800   -1.4020    2.2480 c3        1 MOL      0.039769
    164 C56        -1.1760   -2.1350    1.1150 c3        1 MOL     -0.015865
    165 C57         0.0490   -1.3750    0.4910 c         1 MOL      0.641297
    166 O25         0.8650   -1.9450   -0.2410 o         1 MOL     -0.659070
    167 O26         0.2350   -0.1790    0.9300 o         1 MOL     -0.659070
    168 H71        -4.4030   -1.1030    1.1700 hn        1 MOL     -0.022380
    169 H72        -2.9700   -3.1580    2.8670 h1        1 MOL      0.053318
    170 H73        -1.1890   -1.3640    3.0000 hc        1 MOL      0.073818
    171 H74        -2.2430   -0.3590    2.1140 hc        1 MOL      0.073818
    172 H75        -1.7790   -2.5940    0.3430 hc        1 MOL     -0.012488
    173 H76        -0.8130   -3.0260    1.6290 hc        1 MOL     -0.012488
    174 N15        -4.1990   -0.3540    4.1330 n         1 MOL     -0.021245
    175 C58        -4.7230    0.2430    5.2980 c3        1 MOL     -0.239498
    176 H77        -3.9480    0.8400    5.7790 h1        1 MOL      0.083226
    177 H78        -5.5630    0.8840    5.0330 h1        1 MOL      0.083226
    178 H79        -5.0610   -0.5340    5.9850 h1        1 MOL      0.083226
    179 H80        -4.3350    0.1760    3.2800 hn        1 MOL      0.134584
    180 Ca1         2.6490   -0.0190    0.0470 Ca        1 MOL      1.689891
    181 O27         2.6030   -0.2610    2.8960 oh        1 MOL     -0.884717
    182 H81         3.3920   -0.2320    3.4480 ho        1 MOL      0.421797
    183 H82         1.9280   -0.6170    3.4720 ho        1 MOL      0.421797
    184 O28         1.1070    1.0180   -2.2440 oh        1 MOL     -0.884717
    185 H83         1.2820    0.2970   -2.8380 ho        1 MOL      0.421797
    186 H84         1.6180    1.7520   -2.5900 ho        1 MOL      0.421797
    187 O29         5.1150    0.5260    1.1460 oh        1 MOL     -0.884717
    188 H85         5.0630    0.7250    2.0840 ho        1 MOL      0.421797
    189 H86         6.0210    0.2420    1.0110 ho        1 MOL      0.421797
@<TRIPOS>BOND
     1    1    2 1   
     2    1    4 1   
     3    1    5 1   
     4    1    6 1   
     5    2    3 2   
     6    2    7 1   
     7    7    8 1   
     8    7   15 1   
     9    8    9 1   
    10    8   11 1   
    11    8   16 1   
    12    9   10 2   
    13    9   19 1   
    14   11   12 1   
    15   11   17 1   
    16   11   18 1   
    17   12   13 1   
    18   12   14 1   
    19   19   20 1   
    20   19   27 1   
    21   20   21 1   
    22   20   23 1   
    23   20   28 1   
    24   21   22 2   
    25   21   38 1   
    26   23   24 1   
    27   23   25 1   
    28   23   29 1   
    29   24   26 1   
    30   24   30 1   
    31   24   31 1   
    32   25   32 1   
    33   25   33 1   
    34   25   34 1   
    35   26   35 1   
    36   26   36 1   
    37   26   37 1   
    38   38   39 1   
    39   38   46 1   
    40   39   40 1   
    41   39   42 1   
    42   39   47 1   
    43   40   41 2   
    44   40   50 1   
    45   42   43 1   
    46   42   48 1   
    47   42   49 1   
    48   43   44 1   
    49   43   45 1   
    50   50   51 1   
    51   50   54 1   
    52   51   52 1   
    53   51   55 1   
    54   51   56 1   
    55   52   53 2   
    56   52   57 1   
    57   57   58 1   
    58   57   65 1   
    59   58   59 1   
    60   58   61 1   
    61   58   66 1   
    62   59   60 2   
    63   59   69 1   
    64   61   62 1   
    65   61   67 1   
    66   61   68 1   
    67   62   63 1   
    68   62   64 1   
    69   69   70 1   
    70   69   73 1   
    71   70   71 1   
    72   70   74 1   
    73   70   75 1   
    74   71   72 2   
    75   71   76 1   
    76   76   77 1   
    77   76   85 1   
    78   77   78 1   
    79   77   80 1   
    80   77   86 1   
    81   78   79 2   
    82   78   93 1   
    83   80   81 1   
    84   80   87 1   
    85   80   88 1   
    86   81   82 1   
    87   81   89 1   
    88   81   90 1   
    89   82   83 1   
    90   82   84 2   
    91   83   91 1   
    92   83   92 1   
    93   93   94 1   
    94   93  100 1   
    95   94   95 1   
    96   94   97 1   
    97   94  101 1   
    98   95   96 2   
    99   95  109 1   
   100   97   98 1   
   101   97   99 1   
   102   97  102 1   
   103   98  103 1   
   104   98  104 1   
   105   98  105 1   
   106   99  106 1   
   107   99  107 1   
   108   99  108 1   
   109  109  110 1   
   110  109  117 1   
   111  110  111 1   
   112  110  113 1   
   113  110  118 1   
   114  111  112 2   
   115  111  123 1   
   116  113  114 1   
   117  113  119 1   
   118  113  120 1   
   119  114  115 1   
   120  114  116 2   
   121  115  121 1   
   122  115  122 1   
   123  123  124 1   
   124  123  135 1   
   125  124  125 1   
   126  124  127 1   
   127  124  136 1   
   128  125  126 2   
   129  125  144 1   
   130  127  128 1   
   131  127  137 1   
   132  127  138 1   
   133  128  129 ar  
   134  128  130 ar  
   135  129  131 ar  
   136  129  139 1   
   137  130  132 ar  
   138  130  140 1   
   139  131  133 ar  
   140  131  141 1   
   141  132  133 ar  
   142  132  142 1   
   143  133  134 1   
   144  134  143 1   
   145  144  145 1   
   146  144  153 1   
   147  145  146 1   
   148  145  148 1   
   149  145  154 1   
   150  146  147 2   
   151  146  159 1   
   152  148  149 1   
   153  148  155 1   
   154  148  156 1   
   155  149  150 1   
   156  149  157 1   
   157  149  158 1   
   158  150  151 1   
   159  150  152 1   
   160  159  160 1   
   161  159  168 1   
   162  160  161 1   
   163  160  163 1   
   164  160  169 1   
   165  161  162 2   
   166  161  174 1   
   167  163  164 1   
   168  163  170 1   
   169  163  171 1   
   170  164  165 1   
   171  164  172 1   
   172  164  173 1   
   173  165  166 1   
   174  165  167 1   
   175  174  175 1   
   176  174  179 1   
   177  175  176 1   
   178  175  177 1   
   179  175  178 1   
   180  181  182 1   
   181  181  183 1   
   182  184  185 1   
   183  184  186 1   
   184  187  188 1   
   185  187  189 1   
@<TRIPOS>SUBSTRUCTURE
     1 MOL         1 TEMP              0 ****  ****    0 ROOT
