@<TRIPOS>MOLECULE
MOL
  189   185     1     0     0
SMALL
resp


@<TRIPOS>ATOM
      1 C1         -0.1280   -2.8230    6.2430 c3        1 MOL     -0.387331
      2 C2          0.3320   -2.6890    4.7730 c         1 MOL      0.726082
      3 O1          0.7120   -1.6160    4.2670 o         1 MOL     -0.613708
      4 H1         -0.9580   -3.5260    6.3010 hc        1 MOL      0.102641
      5 H2          0.7000   -3.1870    6.8520 hc        1 MOL      0.102641
      6 H3         -0.4500   -1.8500    6.6130 hc        1 MOL      0.102641
      7 N1          0.5170   -3.8140    4.0390 n         1 MOL     -0.594705
      8 C3          1.3130   -3.7980    2.8180 c3        1 MOL      0.190550
      9 C4          0.9500   -4.9060    1.7780 c         1 MOL      0.530936
     10 O2          0.6740   -6.0550    2.1810 o         1 MOL     -0.598958
     11 C5          2.8160   -3.7840    3.2750 c3        1 MOL     -0.167128
     12 C6          3.7880   -3.5610    2.0640 c         1 MOL      0.605543
     13 O3          4.8470   -4.1890    2.0190 o         1 MOL     -0.616669
     14 O4          3.4860   -2.6400    1.2240 o         1 MOL     -0.616669
     15 H4          0.1740   -4.7070    4.3540 hn        1 MOL      0.303033
     16 H5          1.0570   -2.9210    2.2250 h1        1 MOL      0.077435
     17 H6          3.1620   -4.7200    3.7050 hc        1 MOL      0.036086
     18 H7          3.0580   -3.0210    4.0040 hc        1 MOL      0.036086
     19 N2          1.1440   -4.5780    0.5260 n         1 MOL     -0.160277
     20 C7          1.0790   -5.5960   -0.6030 c3        1 MOL     -0.217278
     21 C8          2.2490   -5.4770   -1.5750 c         1 MOL      0.481680
     22 O5          2.5380   -6.4060   -2.3570 o         1 MOL     -0.583537
     23 C9         -0.3100   -5.6830   -1.3250 c3        1 MOL      0.139311
     24 C10        -0.7960   -4.2540   -1.7580 c3        1 MOL      0.078919
     25 C11        -1.4350   -6.5160   -0.6400 c3        1 MOL     -0.409707
     26 C12        -1.8840   -4.1900   -2.9190 c3        1 MOL     -0.352639
     27 H8          1.1170   -3.5910    0.2890 hn        1 MOL     -0.047973
     28 H9          1.2360   -6.5540   -0.1040 h1        1 MOL      0.162382
     29 H10        -0.1570   -6.2450   -2.2420 hc        1 MOL      0.029688
     30 H11         0.0310   -3.5740   -1.9900 hc        1 MOL      0.048321
     31 H12        -1.2650   -3.7490   -0.9190 hc        1 MOL      0.048321
     32 H13        -1.0580   -7.5320   -0.6340 hc        1 MOL      0.101900
     33 H14        -1.7570   -6.1290    0.3300 hc        1 MOL      0.101900
     34 H15        -2.3510   -6.4220   -1.2250 hc        1 MOL      0.101900
     35 H16        -1.5470   -4.6730   -3.8350 hc        1 MOL      0.084838
     36 H17        -2.7610   -4.6280   -2.4360 hc        1 MOL      0.084838
     37 H18        -2.0890   -3.1270   -3.0590 hc        1 MOL      0.084838
     38 N3          3.0530   -4.4290   -1.4750 n         1 MOL     -0.315454
     39 C13         4.0770   -4.1820   -2.5610 c3        1 MOL      0.103170
     40 C14         5.4530   -3.6790   -2.0440 c         1 MOL      0.283773
     41 O6          6.4700   -3.8190   -2.7470 o         1 MOL     -0.552024
     42 C15         3.4440   -3.2200   -3.5840 c3        1 MOL     -0.375862
     43 C16         2.7570   -1.9750   -3.0980 c         1 MOL      0.739760
     44 O7          2.8160   -1.6790   -1.8410 o         1 MOL     -0.683182
     45 O8          2.2140   -1.1900   -3.9070 o         1 MOL     -0.683182
     46 H19         2.8500   -3.5910   -0.9550 hn        1 MOL      0.353899
     47 H20         4.2240   -5.1270   -3.0860 h1        1 MOL      0.102286
     48 H21         2.7020   -3.8340   -4.1160 hc        1 MOL      0.100523
     49 H22         4.2150   -2.9110   -4.2860 hc        1 MOL      0.100523
     50 N4          5.5140   -3.0740   -0.8450 n         1 MOL      0.153716
     51 C17         6.7230   -2.6030   -0.1560 c3        1 MOL     -0.115704
     52 C18         7.3160   -1.3470   -0.7960 c         1 MOL      0.442176
     53 O9          8.5220   -1.1610   -0.6550 o         1 MOL     -0.607790
     54 H23         4.7500   -2.9720   -0.1990 hn        1 MOL     -0.184612
     55 H24         7.4490   -3.3930    0.0150 h1        1 MOL      0.090939
     56 H25         6.4220   -2.3530    0.8590 h1        1 MOL      0.090939
     57 N5          6.5600   -0.4980   -1.4360 n         1 MOL     -0.192413
     58 C19         6.9270    0.8910   -1.9650 c3        1 MOL     -0.062950
     59 C20         7.4180    1.9730   -0.9800 c         1 MOL      0.390700
     60 O10         7.9210    3.0710   -1.3180 o         1 MOL     -0.538279
     61 C21         5.8250    1.5200   -2.9100 c3        1 MOL     -0.435177
     62 C22         4.5020    1.5930   -2.1940 c         1 MOL      0.874088
     63 O11         4.3000    1.0670   -1.0840 o         1 MOL     -0.706585
     64 O12         3.5540    2.1430   -2.7890 o         1 MOL     -0.706585
     65 H26         5.5850   -0.7330   -1.4900 hn        1 MOL      0.197916
     66 H27         7.6700    0.7490   -2.7530 h1        1 MOL      0.116910
     67 H28         5.7120    0.8400   -3.7570 hc        1 MOL      0.136029
     68 H29         6.1640    2.5140   -3.2210 hc        1 MOL      0.136029
     69 N6          7.0830    1.6990    0.2830 n         1 MOL     -0.045911
     70 C23         7.3240    2.6690    1.3200 c3        1 MOL     -0.475654
     71 C24         6.2420    3.7820    1.4320 c         1 MOL      0.610881
     72 O13         6.4370    4.8510    2.0110 o         1 MOL     -0.574807
     73 H30         6.5060    0.8920    0.4230 hn        1 MOL      0.181307
     74 H31         8.1720    3.2400    0.9540 h1        1 MOL      0.166623
     75 H32         7.3900    2.1400    2.2740 h1        1 MOL      0.166623
     76 N7          5.0960    3.4950    0.8410 n         1 MOL     -0.373232
     77 C25         3.9960    4.4510    0.7820 c3        1 MOL     -0.128739
     78 C26         2.6820    3.6400    0.9040 c         1 MOL      0.481125
     79 O14         2.7300    2.4460    0.7710 o         1 MOL     -0.470781
     80 C27         4.1070    5.2120   -0.5460 c3        1 MOL      0.070615
     81 C28         5.2790    6.1770   -0.5800 c3        1 MOL     -0.162866
     82 C29         5.1830    7.2560   -1.6610 c         1 MOL      0.596865
     83 N8          5.2750    6.8070   -2.8970 n         1 MOL     -0.774062
     84 O15         4.8120    8.3940   -1.4340 o         1 MOL     -0.572336
     85 H33         5.0290    2.6930    0.2340 hn        1 MOL      0.329115
     86 H34         4.2910    5.1430    1.5690 h1        1 MOL      0.098078
     87 H35         3.2130    5.8240   -0.6140 hc        1 MOL      0.030276
     88 H36         4.1340    4.5420   -1.4010 hc        1 MOL      0.030276
     89 H37         6.1680    5.5810   -0.7800 hc        1 MOL      0.066430
     90 H38         5.5440    6.6620    0.3540 hc        1 MOL      0.066430
     91 H39         5.4510    5.8690   -3.2220 hn        1 MOL      0.350898
     92 H40         5.0570    7.4690   -3.6240 hn        1 MOL      0.350898
     93 N9          1.5590    4.2610    1.2420 n         1 MOL     -0.426017
     94 C30         0.2870    3.5620    1.4550 c3        1 MOL      0.094741
     95 C31        -0.6160    3.6920    0.1820 c         1 MOL      0.520024
     96 O16        -0.7360    4.7870   -0.3310 o         1 MOL     -0.588846
     97 C32        -0.3900    3.9800    2.7890 c3        1 MOL      0.129057
     98 C33        -1.7110    3.3070    3.1350 c3        1 MOL     -0.167511
     99 C34         0.5400    3.5320    3.8910 c3        1 MOL     -0.167511
    100 H41         1.5790    5.2640    1.3580 hn        1 MOL      0.267515
    101 H42         0.5630    2.5130    1.4930 h1        1 MOL      0.039833
    102 H43        -0.5430    5.0600    2.8170 hc        1 MOL     -0.003711
    103 H44        -1.6410    2.2230    3.0440 hc        1 MOL      0.032269
    104 H45        -1.9010    3.6420    4.1540 hc        1 MOL      0.032269
    105 H46        -2.5220    3.6620    2.5040 hc        1 MOL      0.032269
    106 H47         1.3920    4.1990    4.0330 hc        1 MOL      0.032269
    107 H48         0.0830    3.5580    4.8810 hc        1 MOL      0.032269
    108 H49         0.8760    2.4890    3.8210 hc        1 MOL      0.032269
    109 N10        -1.2680    2.5950   -0.2770 n         1 MOL     -0.204694
    110 C35        -2.4110    2.6850   -1.2300 c3        1 MOL      0.109341
    111 C36        -3.7360    2.3730   -0.5130 c         1 MOL      0.125165
    112 O17        -3.7850    2.0370    0.6830 o         1 MOL     -0.205315
    113 C37        -2.0960    1.7210   -2.4800 c3        1 MOL     -0.321219
    114 C38        -2.1890    0.2570   -2.0320 c         1 MOL      0.640088
    115 N11        -1.1470   -0.3420   -1.5700 n         1 MOL     -0.492057
    116 O18        -3.2480   -0.2630   -2.1610 o         1 MOL     -0.542194
    117 H50        -1.0780    1.7320    0.2020 hn        1 MOL      0.074946
    118 H51        -2.5510    3.6990   -1.5990 h1        1 MOL      0.072992
    119 H52        -1.0870    1.9330   -2.8410 hc        1 MOL      0.104341
    120 H53        -2.8100    1.9030   -3.2800 hc        1 MOL      0.104341
    121 H54        -0.2840    0.1610   -1.4000 hn        1 MOL      0.240979
    122 H55        -1.2060   -1.2890   -1.2180 hn        1 MOL      0.240979
    123 N12        -4.8160    2.3740   -1.2760 n         1 MOL     -0.113207
    124 C39        -6.1500    2.2910   -0.7310 c3        1 MOL     -0.098938
    125 C40        -6.5770    0.8400   -0.3970 c         1 MOL      0.897616
    126 O19        -7.4240    0.7460    0.4550 o         1 MOL     -0.590315
    127 C41        -6.9970    2.8310   -1.9170 c3        1 MOL     -0.084589
    128 C42        -8.4890    2.8330   -1.6380 ca        1 MOL     -0.109670
    129 C43        -9.0840    3.8790   -0.8990 ca        1 MOL     -0.058772
    130 C44        -9.2720    1.7240   -2.0400 ca        1 MOL     -0.058772
    131 C45       -10.4340    3.7760   -0.5590 ca        1 MOL     -0.358290
    132 C46       -10.6570    1.6920   -1.8200 ca        1 MOL     -0.358290
    133 C47       -11.2490    2.6710   -0.9610 ca        1 MOL      0.466120
    134 O20       -12.5410    2.6370   -0.6370 oh        1 MOL     -0.578841
    135 H56        -4.7470    2.6940   -2.2290 hn        1 MOL      0.188911
    136 H57        -6.2630    2.9950    0.0840 h1        1 MOL      0.082718
    137 H58        -6.8220    2.2300   -2.8090 hc        1 MOL      0.045522
    138 H59        -6.7370    3.8770   -2.0620 hc        1 MOL      0.045522
    139 H60        -8.4500    4.6920   -0.5950 ha        1 MOL      0.120001
    140 H61        -8.8250    0.8730   -2.5360 ha        1 MOL      0.120001
    141 H62       -10.8550    4.6030    0.0000 ha        1 MOL      0.154635
    142 H63       -11.2080    0.8300   -2.1580 ha        1 MOL      0.154635
    143 H64       -12.9080    1.8600   -1.0760 ho        1 MOL      0.413666
    144 N13        -5.9410   -0.2510   -0.9620 n         1 MOL     -0.435822
    145 C48        -6.0500   -1.5820   -0.3850 c3        1 MOL     -0.144662
    146 C49        -5.3180   -1.7750    0.9590 c         1 MOL      0.314933
    147 O21        -5.6560   -2.6710    1.7650 o         1 MOL     -0.519484
    148 C50        -5.6130   -2.6140   -1.4390 c3        1 MOL      0.167238
    149 C51        -6.3190   -2.6410   -2.8280 c3        1 MOL     -0.395645
    150 C52        -7.8910   -2.8060   -2.6690 c         1 MOL      0.755833
    151 O22        -8.6100   -2.3100   -3.5540 o         1 MOL     -0.728156
    152 O23        -8.3230   -3.4720   -1.6860 o         1 MOL     -0.728156
    153 H65        -5.2420    0.0110   -1.6490 hn        1 MOL      0.170273
    154 H66        -7.1040   -1.7870   -0.1970 h1        1 MOL      0.158548
    155 H67        -5.7840   -3.5560   -0.9220 hc        1 MOL      0.013131
    156 H68        -4.5300   -2.7100   -1.5170 hc        1 MOL      0.013131
    157 H69        -5.9380   -3.4850   -3.3960 hc        1 MOL      0.067806
    158 H70        -6.0750   -1.7350   -3.3750 hc        1 MOL      0.067806
    159 N14        -4.3760   -0.9200    1.3410 n         1 MOL     -0.037349
    160 C53        -3.6840   -0.9620    2.7060 c3        1 MOL     -0.035589
    161 C54        -4.2900    0.0430    3.7200 c         1 MOL      0.394288
    162 O24        -4.3360   -0.1860    4.9630 o         1 MOL     -0.560993
    163 C55        -2.2430   -0.6600    2.5120 c3        1 MOL     -0.090234
    164 C56        -1.5010   -1.6610    1.6660 c3        1 MOL      0.333867
    165 C57        -0.2340   -1.0520    1.1020 c         1 MOL      0.585654
    166 O25         0.4680   -1.7300    0.3640 o         1 MOL     -0.677223
    167 O26         0.1310    0.1310    1.2800 o         1 MOL     -0.677223
    168 H71        -4.2520   -0.1420    0.7100 hn        1 MOL      0.076475
    169 H72        -3.7760   -1.9790    3.0970 h1        1 MOL      0.082110
    170 H73        -1.7730   -0.6250    3.4990 hc        1 MOL      0.041304
    171 H74        -2.0810    0.3340    2.0940 hc        1 MOL      0.041304
    172 H75        -2.0700   -1.7840    0.7380 hc        1 MOL     -0.098808
    173 H76        -1.3420   -2.6020    2.1900 hc        1 MOL     -0.098808
    174 N15        -4.8170    1.1960    3.2270 n         1 MOL     -0.003526
    175 C58        -5.5440    2.1820    4.0820 c3        1 MOL     -0.185846
    176 H77        -6.3690    1.6830    4.5900 h1        1 MOL      0.074936
    177 H78        -4.8590    2.5970    4.8220 h1        1 MOL      0.074936
    178 H79        -5.9370    2.9850    3.4570 h1        1 MOL      0.074936
    179 H80        -4.7550    1.3120    2.2330 hn        1 MOL     -0.068172
    180 Ca1         2.5480   -0.2720    0.3550 Ca        1 MOL      1.746712
    181 O27         2.4970    0.0320    2.9760 oh        1 MOL     -0.881216
    182 H81         2.0230   -0.6210    3.5010 ho        1 MOL      0.414670
    183 H82         2.6870    0.7360    3.6050 ho        1 MOL      0.414670
    184 O28         1.4540    0.9650   -1.9350 oh        1 MOL     -0.881216
    185 H83         1.5080    0.3190   -2.6380 ho        1 MOL      0.414670
    186 H84         2.1830    1.5630   -2.1010 ho        1 MOL      0.414670
    187 O29         5.2050   -0.0280    1.6630 oh        1 MOL     -0.881216
    188 H85         6.0140   -0.4320    1.9840 ho        1 MOL      0.414670
    189 H86         4.6540    0.0590    2.4340 ho        1 MOL      0.414670
@<TRIPOS>BOND
     1    1    2 1   
     2    1    4 1   
     3    1    5 1   
     4    1    6 1   
     5    2    3 2   
     6    2    7 1   
     7    7    8 1   
     8    7   15 1   
     9    8    9 1   
    10    8   11 1   
    11    8   16 1   
    12    9   10 2   
    13    9   19 1   
    14   11   12 1   
    15   11   17 1   
    16   11   18 1   
    17   12   13 1   
    18   12   14 1   
    19   19   20 1   
    20   19   27 1   
    21   20   21 1   
    22   20   23 1   
    23   20   28 1   
    24   21   22 2   
    25   21   38 1   
    26   23   24 1   
    27   23   25 1   
    28   23   29 1   
    29   24   26 1   
    30   24   30 1   
    31   24   31 1   
    32   25   32 1   
    33   25   33 1   
    34   25   34 1   
    35   26   35 1   
    36   26   36 1   
    37   26   37 1   
    38   38   39 1   
    39   38   46 1   
    40   39   40 1   
    41   39   42 1   
    42   39   47 1   
    43   40   41 2   
    44   40   50 1   
    45   42   43 1   
    46   42   48 1   
    47   42   49 1   
    48   43   44 1   
    49   43   45 1   
    50   50   51 1   
    51   50   54 1   
    52   51   52 1   
    53   51   55 1   
    54   51   56 1   
    55   52   53 2   
    56   52   57 1   
    57   57   58 1   
    58   57   65 1   
    59   58   59 1   
    60   58   61 1   
    61   58   66 1   
    62   59   60 2   
    63   59   69 1   
    64   61   62 1   
    65   61   67 1   
    66   61   68 1   
    67   62   63 1   
    68   62   64 1   
    69   69   70 1   
    70   69   73 1   
    71   70   71 1   
    72   70   74 1   
    73   70   75 1   
    74   71   72 2   
    75   71   76 1   
    76   76   77 1   
    77   76   85 1   
    78   77   78 1   
    79   77   80 1   
    80   77   86 1   
    81   78   79 2   
    82   78   93 1   
    83   80   81 1   
    84   80   87 1   
    85   80   88 1   
    86   81   82 1   
    87   81   89 1   
    88   81   90 1   
    89   82   83 1   
    90   82   84 2   
    91   83   91 1   
    92   83   92 1   
    93   93   94 1   
    94   93  100 1   
    95   94   95 1   
    96   94   97 1   
    97   94  101 1   
    98   95   96 2   
    99   95  109 1   
   100   97   98 1   
   101   97   99 1   
   102   97  102 1   
   103   98  103 1   
   104   98  104 1   
   105   98  105 1   
   106   99  106 1   
   107   99  107 1   
   108   99  108 1   
   109  109  110 1   
   110  109  117 1   
   111  110  111 1   
   112  110  113 1   
   113  110  118 1   
   114  111  112 2   
   115  111  123 1   
   116  113  114 1   
   117  113  119 1   
   118  113  120 1   
   119  114  115 1   
   120  114  116 2   
   121  115  121 1   
   122  115  122 1   
   123  123  124 1   
   124  123  135 1   
   125  124  125 1   
   126  124  127 1   
   127  124  136 1   
   128  125  126 2   
   129  125  144 1   
   130  127  128 1   
   131  127  137 1   
   132  127  138 1   
   133  128  129 ar  
   134  128  130 ar  
   135  129  131 ar  
   136  129  139 1   
   137  130  132 ar  
   138  130  140 1   
   139  131  133 ar  
   140  131  141 1   
   141  132  133 ar  
   142  132  142 1   
   143  133  134 1   
   144  134  143 1   
   145  144  145 1   
   146  144  153 1   
   147  145  146 1   
   148  145  148 1   
   149  145  154 1   
   150  146  147 2   
   151  146  159 1   
   152  148  149 1   
   153  148  155 1   
   154  148  156 1   
   155  149  150 1   
   156  149  157 1   
   157  149  158 1   
   158  150  151 1   
   159  150  152 1   
   160  159  160 1   
   161  159  168 1   
   162  160  161 1   
   163  160  163 1   
   164  160  169 1   
   165  161  162 2   
   166  161  174 1   
   167  163  164 1   
   168  163  170 1   
   169  163  171 1   
   170  164  165 1   
   171  164  172 1   
   172  164  173 1   
   173  165  166 1   
   174  165  167 1   
   175  174  175 1   
   176  174  179 1   
   177  175  176 1   
   178  175  177 1   
   179  175  178 1   
   180  181  182 1   
   181  181  183 1   
   182  184  185 1   
   183  184  186 1   
   184  187  188 1   
   185  187  189 1   
@<TRIPOS>SUBSTRUCTURE
     1 MOL         1 TEMP              0 ****  ****    0 ROOT
