@<TRIPOS>MOLECULE
MOL
  189   185     1     0     0
SMALL
resp


@<TRIPOS>ATOM
      1 C1         -1.1540    2.3180    6.1430 c3        1 MOL     -0.387739
      2 C2         -1.2880    2.0220    4.6790 c         1 MOL      0.836749
      3 O1         -0.3700    2.3960    3.9310 o         1 MOL     -0.723445
      4 H1         -1.3670    1.4160    6.7160 hc        1 MOL      0.094810
      5 H2         -0.1380    2.6500    6.3550 hc        1 MOL      0.094810
      6 H3         -1.8590    3.1000    6.4220 hc        1 MOL      0.094810
      7 N1         -2.4270    1.3690    4.2960 n         1 MOL     -0.700922
      8 C3         -2.7700    1.3430    2.8300 c3        1 MOL      0.265229
      9 C4         -3.1710    2.7600    2.3030 c         1 MOL      0.387781
     10 O2         -4.1300    3.3630    2.7560 o         1 MOL     -0.513244
     11 C5         -3.8470    0.2830    2.5950 c3        1 MOL     -0.125232
     12 C6         -4.4250    0.4850    1.2400 c         1 MOL      0.698741
     13 O3         -5.6400    0.7770    1.1180 o         1 MOL     -0.639353
     14 O4         -3.7300    0.3950    0.2310 o         1 MOL     -0.639353
     15 H4         -3.1200    1.0870    4.9720 hn        1 MOL      0.363755
     16 H5         -1.9360    1.0010    2.2340 h1        1 MOL     -0.056410
     17 H6         -4.5910    0.3390    3.3920 hc        1 MOL      0.015703
     18 H7         -3.3200   -0.6740    2.6460 hc        1 MOL      0.015703
     19 N2         -2.3740    3.3110    1.4000 n         1 MOL     -0.134347
     20 C7         -2.4050    4.7370    1.0530 c3        1 MOL     -0.066447
     21 C8         -3.4290    5.0110   -0.0710 c         1 MOL      0.562448
     22 O5         -3.9570    6.0980   -0.1960 o         1 MOL     -0.618551
     23 C9         -0.9560    5.1880    0.6430 c3        1 MOL      0.001234
     24 C10         0.0350    5.0180    1.8550 c3        1 MOL      0.017486
     25 C11         1.2840    5.8280    1.6150 c3        1 MOL     -0.177620
     26 C12         2.3260    5.4520    2.6330 c3        1 MOL      0.093452
     27 N3          3.6700    6.0650    2.5150 n4        1 MOL     -0.383250
     28 H8         -1.6060    2.7250    1.0820 hn        1 MOL      0.161367
     29 H9         -2.7930    5.3450    1.8660 h1        1 MOL      0.059304
     30 H10        -1.0570    6.2210    0.3210 hc        1 MOL      0.029082
     31 H11        -0.6470    4.5970   -0.2220 hc        1 MOL      0.029082
     32 H12         0.3590    3.9880    1.9730 hc        1 MOL      0.067814
     33 H13        -0.3810    5.4130    2.7770 hc        1 MOL      0.067814
     34 H14         1.0850    6.8970    1.7570 hc        1 MOL      0.042937
     35 H15         1.6570    5.8010    0.5840 hc        1 MOL      0.042937
     36 H16         2.6380    4.4050    2.5500 hx        1 MOL      0.092230
     37 H17         1.8900    5.5070    3.6240 hx        1 MOL      0.092230
     38 H18         4.3360    5.9210    3.2660 hn        1 MOL      0.325449
     39 H19         4.0840    5.7150    1.6580 hn        1 MOL      0.325449
     40 H20         3.5010    7.0490    2.3650 hn        1 MOL      0.325449
     41 N4         -3.6540    4.1470   -0.9950 n         1 MOL     -0.398968
     42 C13        -4.2170    4.2590   -2.3590 c3        1 MOL      0.214785
     43 C14        -5.3880    3.2710   -2.4880 c         1 MOL      0.319853
     44 O6         -5.8780    3.0660   -3.5660 o         1 MOL     -0.467613
     45 C15        -3.1240    4.0900   -3.3650 c3        1 MOL     -0.294296
     46 C16        -2.2190    2.8310   -3.1700 c         1 MOL      0.874001
     47 O7         -1.2020    2.6930   -3.8210 o         1 MOL     -0.742927
     48 O8         -2.4960    2.0350   -2.2220 o         1 MOL     -0.742927
     49 H21        -3.2810    3.2460   -0.7310 hn        1 MOL      0.192598
     50 H22        -4.5500    5.2730   -2.5690 h1        1 MOL      0.079056
     51 H23        -2.5040    4.9790   -3.2760 hc        1 MOL      0.059977
     52 H24        -3.6170    4.1290   -4.3300 hc        1 MOL      0.059977
     53 N5         -5.8600    2.6310   -1.3370 n         1 MOL     -0.151484
     54 C17        -7.2630    2.1930   -1.2070 c3        1 MOL     -0.625630
     55 C18        -7.6000    0.8680   -1.7070 c         1 MOL      0.644346
     56 O9         -8.7660    0.5000   -1.7110 o         1 MOL     -0.590647
     57 H25        -5.2800    2.6590   -0.5170 hn        1 MOL      0.250377
     58 H26        -7.8070    2.7410   -1.9780 h1        1 MOL      0.239429
     59 H27        -7.5980    2.1410   -0.1690 h1        1 MOL      0.239429
     60 N6         -6.5750    0.0780   -2.0220 n         1 MOL     -0.299643
     61 C19        -6.7290   -1.3770   -2.2960 c3        1 MOL      0.000071
     62 C20        -6.7400   -2.2640   -1.0710 c         1 MOL      0.431442
     63 O10        -6.9240   -3.4550   -1.3170 o         1 MOL     -0.555316
     64 C21        -5.5320   -1.9140   -3.1790 c3        1 MOL     -0.188269
     65 C22        -4.2060   -1.5170   -2.5040 c         1 MOL      0.729933
     66 O11        -3.4130   -0.7690   -3.1030 o         1 MOL     -0.725982
     67 O12        -3.9280   -1.9970   -1.4110 o         1 MOL     -0.725982
     68 H28        -5.6850    0.4270   -1.7020 hn        1 MOL      0.240201
     69 H29        -7.6830   -1.5230   -2.8050 h1        1 MOL      0.114026
     70 H30        -5.6510   -1.3270   -4.0970 hc        1 MOL      0.057315
     71 H31        -5.5330   -2.9790   -3.3960 hc        1 MOL      0.057315
     72 N7         -6.5260   -1.8200    0.1520 n         1 MOL     -0.215139
     73 C23        -6.6090   -2.6620    1.3770 c3        1 MOL     -0.189975
     74 C24        -5.4250   -3.6990    1.6140 c         1 MOL      0.426185
     75 O13        -5.5580   -4.6850    2.3570 o         1 MOL     -0.557323
     76 H32        -6.3040   -0.8410    0.2780 hn        1 MOL      0.235429
     77 H33        -7.5020   -3.2370    1.1590 h1        1 MOL      0.121788
     78 H34        -6.8620   -2.0740    2.2650 h1        1 MOL      0.121788
     79 N8         -4.3130   -3.5580    0.9120 n         1 MOL     -0.089792
     80 C25        -3.1340   -4.4430    0.9650 c3        1 MOL     -0.213392
     81 C26        -1.9220   -3.5200    0.9560 c         1 MOL      0.730095
     82 O14        -1.9810   -2.3230    0.5580 o         1 MOL     -0.639093
     83 C27        -3.0360   -5.3810   -0.2810 c3        1 MOL      0.419430
     84 C28        -4.1620   -6.3640   -0.4580 c3        1 MOL     -0.499679
     85 O15        -2.9880   -4.6860   -1.5840 oh        1 MOL     -0.652294
     86 H35        -4.3000   -2.8080    0.2380 hn        1 MOL      0.123141
     87 H36        -3.1450   -5.0500    1.8760 h1        1 MOL      0.109172
     88 H37        -2.0720   -5.9010   -0.1910 h1        1 MOL     -0.000610
     89 H38        -3.5580   -3.9090   -1.5770 ho        1 MOL      0.447786
     90 H39        -5.0800   -5.7720   -0.4970 hc        1 MOL      0.138905
     91 H40        -4.0220   -6.9010   -1.3980 hc        1 MOL      0.138905
     92 H41        -4.2500   -7.0440    0.3760 hc        1 MOL      0.138905
     93 N9         -0.7770   -4.0750    1.4160 n         1 MOL     -0.679420
     94 C29         0.5250   -3.3580    1.5230 c3        1 MOL      0.526241
     95 C30         1.5510   -3.9490    0.5660 c         1 MOL      0.325538
     96 O16         1.5920   -5.2300    0.3810 o         1 MOL     -0.522827
     97 C31         0.8790   -3.4010    3.0460 c3        1 MOL      0.082806
     98 C32         0.0470   -2.5220    4.0010 c3        1 MOL     -0.076302
     99 C33         2.4170   -3.3270    3.4780 c3        1 MOL     -0.222145
    100 C34         0.3640   -1.0290    4.0470 c3        1 MOL      0.240837
    101 H42        -0.7310   -5.0690    1.6360 hn        1 MOL      0.300644
    102 H43         0.4150   -2.3140    1.2600 h1        1 MOL     -0.096674
    103 H44         0.6690   -4.4430    3.2740 hc        1 MOL     -0.011645
    104 H45         0.1940   -2.9210    4.9990 hc        1 MOL      0.001136
    105 H46        -0.9720   -2.6970    3.6740 hc        1 MOL      0.001136
    106 H47         2.8370   -2.3640    3.1580 hc        1 MOL      0.034223
    107 H48         2.5430   -3.3790    4.5560 hc        1 MOL      0.034223
    108 H49         2.9120   -4.1910    3.0260 hc        1 MOL      0.034223
    109 H50        -0.1630   -0.5610    4.8800 hc        1 MOL     -0.043648
    110 H51         1.4150   -0.9070    4.2950 hc        1 MOL     -0.043648
    111 H52         0.1270   -0.4840    3.1290 hc        1 MOL     -0.043648
    112 N10         2.3530   -3.0040   -0.0030 n         1 MOL     -0.083773
    113 C35         3.5670   -3.3450   -0.8070 c3        1 MOL      0.010151
    114 C36         4.8080   -2.8270   -0.2120 c         1 MOL      0.275301
    115 O17         4.7780   -2.1070    0.7840 o         1 MOL     -0.263385
    116 C37         3.4800   -2.5380   -2.1340 c3        1 MOL      0.251427
    117 C38         2.3970   -3.2450   -3.0310 c3        1 MOL     -0.159704
    118 O18         3.1340   -1.1440   -2.0830 oh        1 MOL     -0.622153
    119 H53         2.2070   -2.0370    0.2360 hn        1 MOL     -0.067186
    120 H54         3.7730   -4.4070   -0.9660 h1        1 MOL      0.075043
    121 H55         4.3680   -2.6990   -2.7470 h1        1 MOL      0.043720
    122 H56         2.1840   -1.0110   -1.9550 ho        1 MOL      0.403151
    123 H57         1.9420   -2.5940   -3.7780 hc        1 MOL      0.042069
    124 H58         2.9470   -3.9940   -3.5980 hc        1 MOL      0.042069
    125 H59         1.6160   -3.7520   -2.4660 hc        1 MOL      0.042069
    126 N11         5.9300   -3.1370   -0.8790 n         1 MOL     -0.190600
    127 C39         7.2690   -2.6460   -0.6400 c3        1 MOL     -0.304761
    128 C40         7.3750   -1.1940   -0.1530 c         1 MOL      0.486767
    129 O19         7.9100   -1.0060    0.9500 o         1 MOL     -0.464224
    130 C41         8.2330   -2.7150   -1.8380 c3        1 MOL      0.462781
    131 C42         8.5680   -4.1670   -2.1280 c3        1 MOL     -0.370094
    132 O20         7.6200   -2.2240   -3.0040 oh        1 MOL     -0.587265
    133 H60         5.9290   -3.8390   -1.6110 hn        1 MOL      0.270244
    134 H61         7.7410   -3.2570    0.1320 h1        1 MOL      0.140309
    135 H62         9.1380   -2.1700   -1.6150 h1        1 MOL      0.011639
    136 H63         8.3010   -1.6110   -3.2980 ho        1 MOL      0.340400
    137 H64         9.2350   -4.4410   -1.3040 hc        1 MOL      0.098401
    138 H65         7.6150   -4.6790   -2.1470 hc        1 MOL      0.098401
    139 H66         9.1480   -4.1200   -3.0480 hc        1 MOL      0.098401
    140 N12         6.7860   -0.1850   -0.9130 n         1 MOL     -0.466723
    141 C43         6.8490    1.2050   -0.5770 c3        1 MOL     -0.105450
    142 C44         6.1230    1.4790    0.6840 c         1 MOL      0.429040
    143 O21         6.6170    2.2890    1.4810 o         1 MOL     -0.536391
    144 C45         6.3330    2.0760   -1.7740 c3        1 MOL     -0.087245
    145 C46         7.1220    1.7170   -2.9840 c3        1 MOL      0.086234
    146 C47         6.8690    2.6260   -4.2240 c3        1 MOL     -0.160873
    147 C48         7.3720    4.0210   -4.1250 c3        1 MOL      0.000269
    148 N13         8.8390    4.2120   -4.2380 n4        1 MOL     -0.318118
    149 H67         6.2290   -0.5000   -1.6930 hn        1 MOL      0.295350
    150 H68         7.8870    1.5460   -0.4880 h1        1 MOL      0.121047
    151 H69         6.4140    3.1090   -1.4170 hc        1 MOL      0.058476
    152 H70         5.2660    1.9040   -1.9100 hc        1 MOL      0.058476
    153 H71         6.8310    0.7080   -3.2830 hc        1 MOL      0.001156
    154 H72         8.1910    1.8820   -2.8270 hc        1 MOL      0.001156
    155 H73         5.8000    2.7850   -4.3850 hc        1 MOL      0.097174
    156 H74         7.2220    2.0820   -5.0970 hc        1 MOL      0.097174
    157 H75         7.0240    4.4740   -3.1960 hx        1 MOL      0.096129
    158 H76         6.8000    4.5700   -4.8850 hx        1 MOL      0.096129
    159 H77         9.1420    3.9170   -5.1560 hn        1 MOL      0.282038
    160 H78         9.0530    5.1870   -4.1400 hn        1 MOL      0.282038
    161 H79         9.3650    3.6140   -3.6020 hn        1 MOL      0.282038
    162 N14         4.9650    0.9460    0.8360 n         1 MOL     -0.264635
    163 C49         4.0700    1.0740    1.9720 c3        1 MOL     -0.099900
    164 C50         4.5950    0.4360    3.2600 c         1 MOL      0.428703
    165 O22         4.6290    1.0650    4.3270 o         1 MOL     -0.553974
    166 C51         2.7300    0.5730    1.6220 c3        1 MOL      0.130955
    167 C52         2.0800    1.3850    0.5050 c3        1 MOL      0.175643
    168 C53         0.7450    0.8140    0.0700 c         1 MOL      0.649502
    169 O23        -0.3480    1.4440    0.2870 o         1 MOL     -0.663205
    170 O24         0.7670   -0.2890   -0.4590 o         1 MOL     -0.663205
    171 H80         4.5770    0.3670    0.1130 hn        1 MOL      0.305041
    172 H81         3.9020    2.1300    2.2160 h1        1 MOL      0.052734
    173 H82         2.1310    0.4730    2.5230 hc        1 MOL     -0.001674
    174 H83         2.7980   -0.4850    1.3330 hc        1 MOL     -0.001674
    175 H84         2.7660    1.3380   -0.3370 hc        1 MOL     -0.099459
    176 H85         1.9790    2.4290    0.7740 hc        1 MOL     -0.099459
    177 N15         5.0630   -0.8190    3.1110 n         1 MOL      0.057929
    178 C54         5.8210   -1.4950    4.1580 c3        1 MOL     -0.387358
    179 H86         5.1920   -2.2450    4.6350 h1        1 MOL      0.128316
    180 H87         6.6940   -1.9780    3.7200 h1        1 MOL      0.128316
    181 H88         6.1440   -0.7660    4.9010 h1        1 MOL      0.128316
    182 H89         5.0560   -1.2930    2.2260 hn        1 MOL      0.079397
    183 Ca1        -1.7240   -0.4420   -1.2320 Ca        1 MOL      1.726947
    184 O25        -0.8220   -2.6020   -2.4520 oh        1 MOL     -0.838209
    185 H90        -0.3630   -2.6450   -3.2880 ho        1 MOL      0.390792
    186 H91        -1.1770   -3.4880   -2.3280 ho        1 MOL      0.390792
    187 O26        -0.1820    0.3560   -3.5300 oh        1 MOL     -0.838209
    188 H92         0.1830    0.1210   -4.3820 ho        1 MOL      0.390792
    189 H93        -0.4940    1.2480   -3.6420 ho        1 MOL      0.390792
@<TRIPOS>BOND
     1    1    2 1   
     2    1    4 1   
     3    1    5 1   
     4    1    6 1   
     5    2    3 2   
     6    2    7 1   
     7    7    8 1   
     8    7   15 1   
     9    8    9 1   
    10    8   11 1   
    11    8   16 1   
    12    9   10 2   
    13    9   19 1   
    14   11   12 1   
    15   11   17 1   
    16   11   18 1   
    17   12   13 1   
    18   12   14 1   
    19   19   20 1   
    20   19   28 1   
    21   20   21 1   
    22   20   23 1   
    23   20   29 1   
    24   21   22 2   
    25   21   41 1   
    26   23   24 1   
    27   23   30 1   
    28   23   31 1   
    29   24   25 1   
    30   24   32 1   
    31   24   33 1   
    32   25   26 1   
    33   25   34 1   
    34   25   35 1   
    35   26   27 1   
    36   26   36 1   
    37   26   37 1   
    38   27   38 1   
    39   27   39 1   
    40   27   40 1   
    41   41   42 1   
    42   41   49 1   
    43   42   43 1   
    44   42   45 1   
    45   42   50 1   
    46   43   44 2   
    47   43   53 1   
    48   45   46 1   
    49   45   51 1   
    50   45   52 1   
    51   46   47 1   
    52   46   48 1   
    53   53   54 1   
    54   53   57 1   
    55   54   55 1   
    56   54   58 1   
    57   54   59 1   
    58   55   56 2   
    59   55   60 1   
    60   60   61 1   
    61   60   68 1   
    62   61   62 1   
    63   61   64 1   
    64   61   69 1   
    65   62   63 2   
    66   62   72 1   
    67   64   65 1   
    68   64   70 1   
    69   64   71 1   
    70   65   66 1   
    71   65   67 1   
    72   72   73 1   
    73   72   76 1   
    74   73   74 1   
    75   73   77 1   
    76   73   78 1   
    77   74   75 2   
    78   74   79 1   
    79   79   80 1   
    80   79   86 1   
    81   80   81 1   
    82   80   83 1   
    83   80   87 1   
    84   81   82 2   
    85   81   93 1   
    86   83   84 1   
    87   83   85 1   
    88   83   88 1   
    89   84   90 1   
    90   84   91 1   
    91   84   92 1   
    92   85   89 1   
    93   93   94 1   
    94   93  101 1   
    95   94   95 1   
    96   94   97 1   
    97   94  102 1   
    98   95   96 2   
    99   95  112 1   
   100   97   98 1   
   101   97   99 1   
   102   97  103 1   
   103   98  100 1   
   104   98  104 1   
   105   98  105 1   
   106   99  106 1   
   107   99  107 1   
   108   99  108 1   
   109  100  109 1   
   110  100  110 1   
   111  100  111 1   
   112  112  113 1   
   113  112  119 1   
   114  113  114 1   
   115  113  116 1   
   116  113  120 1   
   117  114  115 2   
   118  114  126 1   
   119  116  117 1   
   120  116  118 1   
   121  116  121 1   
   122  117  123 1   
   123  117  124 1   
   124  117  125 1   
   125  118  122 1   
   126  126  127 1   
   127  126  133 1   
   128  127  128 1   
   129  127  130 1   
   130  127  134 1   
   131  128  129 2   
   132  128  140 1   
   133  130  131 1   
   134  130  132 1   
   135  130  135 1   
   136  131  137 1   
   137  131  138 1   
   138  131  139 1   
   139  132  136 1   
   140  140  141 1   
   141  140  149 1   
   142  141  142 1   
   143  141  144 1   
   144  141  150 1   
   145  142  143 2   
   146  142  162 1   
   147  144  145 1   
   148  144  151 1   
   149  144  152 1   
   150  145  146 1   
   151  145  153 1   
   152  145  154 1   
   153  146  147 1   
   154  146  155 1   
   155  146  156 1   
   156  147  148 1   
   157  147  157 1   
   158  147  158 1   
   159  148  159 1   
   160  148  160 1   
   161  148  161 1   
   162  162  163 1   
   163  162  171 1   
   164  163  164 1   
   165  163  166 1   
   166  163  172 1   
   167  164  165 2   
   168  164  177 1   
   169  166  167 1   
   170  166  173 1   
   171  166  174 1   
   172  167  168 1   
   173  167  175 1   
   174  167  176 1   
   175  168  169 1   
   176  168  170 1   
   177  177  178 1   
   178  177  182 1   
   179  178  179 1   
   180  178  180 1   
   181  178  181 1   
   182  184  185 1   
   183  184  186 1   
   184  187  188 1   
   185  187  189 1   
@<TRIPOS>SUBSTRUCTURE
     1 MOL         1 TEMP              0 ****  ****    0 ROOT
