@<TRIPOS>MOLECULE
MOL
  189   185     1     0     0
SMALL
resp


@<TRIPOS>ATOM
      1 C1         -0.3220    1.8860    6.5240 c3        1 MOL     -0.283405
      2 C2         -0.4970    1.6400    5.0130 c         1 MOL      0.704101
      3 O1          0.5020    1.9150    4.3380 o         1 MOL     -0.596805
      4 H1         -1.2870    2.1290    6.9670 hc        1 MOL      0.068267
      5 H2          0.0780    0.9880    6.9950 hc        1 MOL      0.068267
      6 H3          0.3680    2.7150    6.6810 hc        1 MOL      0.068267
      7 N1         -1.7170    1.2690    4.5540 n         1 MOL     -0.520816
      8 C3         -2.0050    1.2180    3.1000 c3        1 MOL      0.020152
      9 C4         -2.2410    2.6230    2.5380 c         1 MOL      0.447412
     10 O2         -3.2740    3.2850    2.7780 o         1 MOL     -0.503733
     11 C5         -3.3220    0.3420    3.0390 c3        1 MOL     -0.416819
     12 C6         -3.9050    0.1110    1.6070 c         1 MOL      0.813575
     13 O3         -4.8770   -0.6720    1.5140 o         1 MOL     -0.667178
     14 O4         -3.3590    0.5740    0.5890 o         1 MOL     -0.667178
     15 H4         -2.5330    1.0990    5.1180 hn        1 MOL      0.335080
     16 H5         -1.1350    0.8250    2.5600 h1        1 MOL      0.012290
     17 H6         -4.0370    0.9200    3.6320 hc        1 MOL      0.116946
     18 H7         -3.1110   -0.6290    3.4800 hc        1 MOL      0.116946
     19 N2         -1.3280    3.1390    1.7070 n         1 MOL     -0.138392
     20 C7         -1.2990    4.5150    1.3670 c3        1 MOL     -0.132939
     21 C8         -2.4930    5.0110    0.5110 c         1 MOL      0.442295
     22 O5         -2.9930    6.1100    0.7400 o         1 MOL     -0.570378
     23 C9          0.0750    4.9140    0.8150 c3        1 MOL     -0.257876
     24 C10         0.2450    6.3800    0.5150 c3        1 MOL      0.155359
     25 C11         1.6550    6.8460    0.1190 c3        1 MOL     -0.188811
     26 C12         1.5510    8.3810   -0.0610 c3        1 MOL      0.187162
     27 N3          2.8770    8.9590    0.2050 n4        1 MOL     -0.474484
     28 H8         -0.5580    2.5440    1.4420 hn        1 MOL      0.205383
     29 H9         -1.4650    5.0750    2.2900 h1        1 MOL      0.108772
     30 H10         0.3190    4.1970    0.0270 hc        1 MOL      0.110354
     31 H11         0.7720    4.7310    1.6340 hc        1 MOL      0.110354
     32 H12        -0.0640    6.9970    1.3610 hc        1 MOL      0.013075
     33 H13        -0.4720    6.7050   -0.2330 hc        1 MOL      0.013075
     34 H14         1.9200    6.3970   -0.8400 hc        1 MOL      0.049523
     35 H15         2.4000    6.6320    0.8930 hc        1 MOL      0.049523
     36 H16         0.8100    8.8580    0.5770 hx        1 MOL      0.065123
     37 H17         1.1140    8.5990   -1.0320 hx        1 MOL      0.065123
     38 H18         2.9690    9.9170   -0.0730 hn        1 MOL      0.350063
     39 H19         3.0590    8.8590    1.1930 hn        1 MOL      0.350063
     40 H20         3.5660    8.3960   -0.2750 hn        1 MOL      0.350063
     41 N4         -2.9580    4.2190   -0.4640 n         1 MOL     -0.223050
     42 C13        -4.0440    4.4950   -1.4880 c3        1 MOL      0.133109
     43 C14        -5.3880    3.8510   -1.1030 c         1 MOL      0.382795
     44 O6         -6.4220    4.1280   -1.6660 o         1 MOL     -0.529220
     45 C15        -3.6020    4.1450   -2.9200 c3        1 MOL     -0.375721
     46 C16        -3.0660    2.7020   -3.1140 c         1 MOL      0.775450
     47 O7         -3.2450    1.8970   -2.2100 o         1 MOL     -0.694017
     48 O8         -2.6350    2.3680   -4.2570 o         1 MOL     -0.694017
     49 H21        -2.4900    3.3230   -0.4730 hn        1 MOL      0.141291
     50 H22        -4.2270    5.5680   -1.5480 h1        1 MOL      0.068708
     51 H23        -2.8310    4.8940   -3.0920 hc        1 MOL      0.097197
     52 H24        -4.4510    4.2480   -3.6060 hc        1 MOL      0.097197
     53 N5         -5.3800    2.8850   -0.1940 n         1 MOL     -0.095468
     54 C17        -6.6530    2.4080    0.3960 c3        1 MOL     -0.277834
     55 C18        -7.2610    1.3110   -0.4180 c         1 MOL      0.664950
     56 O9         -8.4810    1.2190   -0.4220 o         1 MOL     -0.591620
     57 H25        -4.5340    2.4560    0.1540 hn        1 MOL      0.157789
     58 H26        -7.3610    3.2310    0.4090 h1        1 MOL      0.115552
     59 H27        -6.4550    1.9750    1.3790 h1        1 MOL      0.115552
     60 N6         -6.5080    0.4810   -1.2000 n         1 MOL     -0.362090
     61 C19        -7.0480   -0.5800   -2.0640 c3        1 MOL     -0.024821
     62 C20        -7.1170   -1.8540   -1.2990 c         1 MOL      0.381409
     63 O10        -7.5140   -2.8680   -1.9410 o         1 MOL     -0.518750
     64 C21        -6.1650   -0.7330   -3.3530 c3        1 MOL     -0.304252
     65 C22        -4.6840   -1.1520   -2.9780 c         1 MOL      0.694982
     66 O11        -3.7160   -0.7900   -3.7230 o         1 MOL     -0.672183
     67 O12        -4.3240   -1.6250   -1.8970 o         1 MOL     -0.672183
     68 H28        -5.5020    0.5130   -1.1180 hn        1 MOL      0.289475
     69 H29        -8.0940   -0.3510   -2.2950 h1        1 MOL      0.138299
     70 H30        -6.2400    0.1490   -3.9840 hc        1 MOL      0.122895
     71 H31        -6.5530   -1.5390   -3.9790 hc        1 MOL      0.122895
     72 N7         -6.8230   -1.9660   -0.0460 n         1 MOL     -0.205501
     73 C23        -7.0320   -3.1320    0.8200 c3        1 MOL     -0.015229
     74 C24        -5.8380   -3.9750    0.9240 c         1 MOL      0.539331
     75 O13        -5.9580   -5.1690    1.0800 o         1 MOL     -0.578022
     76 H32        -6.2460   -1.2700    0.3980 hn        1 MOL      0.188412
     77 H33        -7.8550   -3.7750    0.5290 h1        1 MOL      0.064340
     78 H34        -7.3440   -2.6900    1.7730 h1        1 MOL      0.064340
     79 N8         -4.6240   -3.4640    0.6880 n         1 MOL     -0.328884
     80 C25        -3.3720   -4.2530    0.4840 c3        1 MOL     -0.105941
     81 C26        -2.1670   -3.4750    0.6090 c         1 MOL      0.674631
     82 O14        -2.1120   -2.2580    0.3270 o         1 MOL     -0.561744
     83 C27        -3.4400   -4.8050   -1.0010 c3        1 MOL      0.447800
     84 C28        -3.5110   -6.3600   -0.9540 c3        1 MOL     -0.452124
     85 O15        -4.5250   -4.3570   -1.7890 oh        1 MOL     -0.603827
     86 H35        -4.5920   -2.4590    0.7620 hn        1 MOL      0.181537
     87 H36        -3.3030   -5.1500    1.1090 h1        1 MOL      0.069964
     88 H37        -2.4740   -4.5610   -1.4290 h1        1 MOL     -0.028722
     89 H38        -4.5200   -3.4010   -1.7810 ho        1 MOL      0.450216
     90 H39        -2.8520   -6.8070   -0.2120 hc        1 MOL      0.112945
     91 H40        -4.5080   -6.6250   -0.5940 hc        1 MOL      0.112945
     92 H41        -3.3350   -6.8840   -1.8940 hc        1 MOL      0.112945
     93 N9         -1.0750   -4.1980    1.0240 n         1 MOL     -0.696203
     94 C29         0.2330   -3.5580    1.3270 c3        1 MOL      0.235557
     95 C30         1.3800   -4.0790    0.3650 c         1 MOL      0.414251
     96 O16         1.6930   -5.2620    0.2760 o         1 MOL     -0.526597
     97 C31         0.5870   -3.5970    2.8140 c3        1 MOL     -0.134001
     98 C32        -0.2630   -2.5250    3.5270 c3        1 MOL     -0.063326
     99 C33         2.1340   -3.3640    3.0050 c3        1 MOL     -0.032514
    100 C34         0.2420   -2.1060    4.9210 c3        1 MOL     -0.067625
    101 H42        -1.1690   -5.1640    1.2900 hn        1 MOL      0.357527
    102 H43         0.1670   -2.5300    0.9570 h1        1 MOL      0.003863
    103 H44         0.3920   -4.6080    3.1670 hc        1 MOL      0.062918
    104 H45        -1.2870   -2.8800    3.6520 hc        1 MOL      0.061102
    105 H46        -0.3670   -1.6400    2.8970 hc        1 MOL      0.061102
    106 H47         2.4850   -3.3630    4.0310 hc        1 MOL     -0.002148
    107 H48         2.7260   -4.1060    2.4680 hc        1 MOL     -0.002148
    108 H49         2.4100   -2.4260    2.5190 hc        1 MOL     -0.002148
    109 H50         1.0350   -1.3740    4.8160 hc        1 MOL      0.024853
    110 H51        -0.5710   -1.7320    5.5510 hc        1 MOL      0.024853
    111 H52         0.6700   -2.9450    5.4760 hc        1 MOL      0.024853
    112 N10         2.1040   -3.1860   -0.4160 n         1 MOL     -0.067322
    113 C35         3.3090   -3.3300   -1.1670 c3        1 MOL     -0.156502
    114 C36         4.5780   -3.1060   -0.3950 c         1 MOL      0.392129
    115 O17         4.5180   -2.9250    0.7300 o         1 MOL     -0.230531
    116 C37         3.2460   -2.4960   -2.4070 c3        1 MOL      0.258801
    117 C38         2.1410   -2.7130   -3.3840 c3        1 MOL     -0.383371
    118 O18         3.1480   -1.1340   -2.0480 oh        1 MOL     -0.641467
    119 H53         1.7090   -2.2610   -0.4610 hn        1 MOL      0.153105
    120 H54         3.2790   -4.3710   -1.4730 h1        1 MOL      0.077760
    121 H55         4.1310   -2.7380   -2.9890 h1        1 MOL      0.061707
    122 H56         2.2630   -0.9350   -1.7090 ho        1 MOL      0.445934
    123 H57         2.2180   -1.8790   -4.0820 hc        1 MOL      0.103580
    124 H58         2.3180   -3.6370   -3.9330 hc        1 MOL      0.103580
    125 H59         1.1710   -2.7200   -2.8900 hc        1 MOL      0.103580
    126 N11         5.7220   -3.1710   -1.1380 n         1 MOL     -0.386376
    127 C39         7.0360   -3.0550   -0.5740 c3        1 MOL      0.027477
    128 C40         7.2560   -1.6710    0.0610 c         1 MOL      0.249989
    129 O19         7.6830   -1.5640    1.1940 o         1 MOL     -0.460540
    130 C41         8.0980   -3.2830   -1.5990 c3        1 MOL      0.122561
    131 C42         8.2150   -4.7480   -1.9010 c3        1 MOL     -0.200862
    132 O20         7.8630   -2.6490   -2.8120 oh        1 MOL     -0.655788
    133 H60         5.5660   -3.1040   -2.1330 hn        1 MOL      0.264928
    134 H61         7.1170   -3.7140    0.2930 h1        1 MOL      0.126568
    135 H62         9.0880   -3.0160   -1.2440 h1        1 MOL      0.082601
    136 H63         8.4400   -2.9630   -3.5100 ho        1 MOL      0.441137
    137 H64         7.2970   -5.0880   -2.3790 hc        1 MOL      0.064285
    138 H65         9.0740   -5.0720   -2.4860 hc        1 MOL      0.064285
    139 H66         8.2750   -5.3510   -0.9920 hc        1 MOL      0.064285
    140 N12         6.9510   -0.6240   -0.6910 n         1 MOL     -0.139455
    141 C43         7.0140    0.8170   -0.3120 c3        1 MOL      0.037507
    142 C44         6.0830    1.1800    0.8450 c         1 MOL      0.335487
    143 O21         6.3510    2.0830    1.6280 o         1 MOL     -0.514151
    144 C45         6.8950    1.7240   -1.4910 c3        1 MOL     -0.198475
    145 C46         7.9080    1.4170   -2.5680 c3        1 MOL     -0.021435
    146 C47         8.2380    2.6250   -3.5120 c3        1 MOL     -0.033231
    147 C48         9.3420    3.5380   -2.8150 c3        1 MOL      0.040635
    148 N13         9.4790    4.7410   -3.6100 n4        1 MOL     -0.249285
    149 H67         6.7060   -0.9290   -1.6160 hn        1 MOL      0.224489
    150 H68         7.9410    1.0320    0.2220 h1        1 MOL      0.083299
    151 H69         7.0890    2.7310   -1.1330 hc        1 MOL      0.071513
    152 H70         5.8780    1.6520   -1.8940 hc        1 MOL      0.071513
    153 H71         7.4690    0.6130   -3.1550 hc        1 MOL      0.045558
    154 H72         8.8010    0.9900   -2.1090 hc        1 MOL      0.045558
    155 H73         7.3850    3.2880   -3.6550 hc        1 MOL      0.036526
    156 H74         8.5480    2.2600   -4.4890 hc        1 MOL      0.036526
    157 H75        10.2670    2.9570   -2.8210 hx        1 MOL      0.076211
    158 H76         9.0620    3.7520   -1.7840 hx        1 MOL      0.076211
    159 H77        10.2750    5.2750   -3.2850 hn        1 MOL      0.250721
    160 H78         9.5220    4.5130   -4.5910 hn        1 MOL      0.250721
    161 H79         8.6140    5.2490   -3.4780 hn        1 MOL      0.250721
    162 N14         4.9480    0.4970    0.9380 n         1 MOL     -0.087227
    163 C49         3.9560    0.6420    1.9910 c3        1 MOL     -0.132297
    164 C50         4.3470   -0.1700    3.2750 c         1 MOL      0.488026
    165 O22         4.2230    0.3240    4.4150 o         1 MOL     -0.541084
    166 C51         2.5840    0.2780    1.4880 c3        1 MOL      0.112131
    167 C52         1.9390    1.0540    0.3040 c3        1 MOL     -0.100832
    168 C53         0.6430    0.4020   -0.1720 c         1 MOL      0.614626
    169 O23        -0.3820    1.0890   -0.2400 o         1 MOL     -0.653360
    170 O24         0.6870   -0.7590   -0.7000 o         1 MOL     -0.653360
    171 H80         4.7490   -0.0980    0.1470 hn        1 MOL      0.099451
    172 H81         3.8360    1.6840    2.2660 h1        1 MOL      0.098418
    173 H82         1.9390    0.2330    2.3630 hc        1 MOL      0.048462
    174 H83         2.5640   -0.7230    1.0600 hc        1 MOL      0.048462
    175 H84         2.6880    0.8660   -0.4660 hc        1 MOL     -0.013745
    176 H85         1.7680    2.1100    0.5430 hc        1 MOL     -0.013745
    177 N15         4.8470   -1.4260    3.0720 n         1 MOL     -0.026071
    178 C54         5.4240   -2.3030    4.0500 c3        1 MOL     -0.290894
    179 H86         6.3310   -2.7510    3.6450 h1        1 MOL      0.106945
    180 H87         5.6690   -1.7360    4.9480 h1        1 MOL      0.106945
    181 H88         4.7110   -3.0880    4.3000 h1        1 MOL      0.106945
    182 H89         4.9160   -1.7630    2.1260 hn        1 MOL      0.022232
    183 Ca1        -2.1340   -0.2870   -1.3880 Ca        1 MOL      1.671082
    184 O25        -0.9390    0.4880   -3.6130 oh        1 MOL     -0.877421
    185 H90        -1.7000    0.9270   -3.9790 ho        1 MOL      0.403834
    186 H91        -0.3150    0.4430   -4.3330 ho        1 MOL      0.403834
    187 O26        -1.5980   -2.5740   -2.8850 oh        1 MOL     -0.877421
    188 H92        -2.3780   -2.6770   -3.4180 ho        1 MOL      0.403834
    189 H93        -0.8720   -2.5450   -3.5050 ho        1 MOL      0.403834
@<TRIPOS>BOND
     1    1    2 1   
     2    1    4 1   
     3    1    5 1   
     4    1    6 1   
     5    2    3 2   
     6    2    7 1   
     7    7    8 1   
     8    7   15 1   
     9    8    9 1   
    10    8   11 1   
    11    8   16 1   
    12    9   10 2   
    13    9   19 1   
    14   11   12 1   
    15   11   17 1   
    16   11   18 1   
    17   12   13 1   
    18   12   14 1   
    19   19   20 1   
    20   19   28 1   
    21   20   21 1   
    22   20   23 1   
    23   20   29 1   
    24   21   22 2   
    25   21   41 1   
    26   23   24 1   
    27   23   30 1   
    28   23   31 1   
    29   24   25 1   
    30   24   32 1   
    31   24   33 1   
    32   25   26 1   
    33   25   34 1   
    34   25   35 1   
    35   26   27 1   
    36   26   36 1   
    37   26   37 1   
    38   27   38 1   
    39   27   39 1   
    40   27   40 1   
    41   41   42 1   
    42   41   49 1   
    43   42   43 1   
    44   42   45 1   
    45   42   50 1   
    46   43   44 2   
    47   43   53 1   
    48   45   46 1   
    49   45   51 1   
    50   45   52 1   
    51   46   47 1   
    52   46   48 1   
    53   53   54 1   
    54   53   57 1   
    55   54   55 1   
    56   54   58 1   
    57   54   59 1   
    58   55   56 2   
    59   55   60 1   
    60   60   61 1   
    61   60   68 1   
    62   61   62 1   
    63   61   64 1   
    64   61   69 1   
    65   62   63 2   
    66   62   72 1   
    67   64   65 1   
    68   64   70 1   
    69   64   71 1   
    70   65   66 1   
    71   65   67 1   
    72   72   73 1   
    73   72   76 1   
    74   73   74 1   
    75   73   77 1   
    76   73   78 1   
    77   74   75 2   
    78   74   79 1   
    79   79   80 1   
    80   79   86 1   
    81   80   81 1   
    82   80   83 1   
    83   80   87 1   
    84   81   82 2   
    85   81   93 1   
    86   83   84 1   
    87   83   85 1   
    88   83   88 1   
    89   84   90 1   
    90   84   91 1   
    91   84   92 1   
    92   85   89 1   
    93   93   94 1   
    94   93  101 1   
    95   94   95 1   
    96   94   97 1   
    97   94  102 1   
    98   95   96 2   
    99   95  112 1   
   100   97   98 1   
   101   97   99 1   
   102   97  103 1   
   103   98  100 1   
   104   98  104 1   
   105   98  105 1   
   106   99  106 1   
   107   99  107 1   
   108   99  108 1   
   109  100  109 1   
   110  100  110 1   
   111  100  111 1   
   112  112  113 1   
   113  112  119 1   
   114  113  114 1   
   115  113  116 1   
   116  113  120 1   
   117  114  115 2   
   118  114  126 1   
   119  116  117 1   
   120  116  118 1   
   121  116  121 1   
   122  117  123 1   
   123  117  124 1   
   124  117  125 1   
   125  118  122 1   
   126  126  127 1   
   127  126  133 1   
   128  127  128 1   
   129  127  130 1   
   130  127  134 1   
   131  128  129 2   
   132  128  140 1   
   133  130  131 1   
   134  130  132 1   
   135  130  135 1   
   136  131  137 1   
   137  131  138 1   
   138  131  139 1   
   139  132  136 1   
   140  140  141 1   
   141  140  149 1   
   142  141  142 1   
   143  141  144 1   
   144  141  150 1   
   145  142  143 2   
   146  142  162 1   
   147  144  145 1   
   148  144  151 1   
   149  144  152 1   
   150  145  146 1   
   151  145  153 1   
   152  145  154 1   
   153  146  147 1   
   154  146  155 1   
   155  146  156 1   
   156  147  148 1   
   157  147  157 1   
   158  147  158 1   
   159  148  159 1   
   160  148  160 1   
   161  148  161 1   
   162  162  163 1   
   163  162  171 1   
   164  163  164 1   
   165  163  166 1   
   166  163  172 1   
   167  164  165 2   
   168  164  177 1   
   169  166  167 1   
   170  166  173 1   
   171  166  174 1   
   172  167  168 1   
   173  167  175 1   
   174  167  176 1   
   175  168  169 1   
   176  168  170 1   
   177  177  178 1   
   178  177  182 1   
   179  178  179 1   
   180  178  180 1   
   181  178  181 1   
   182  184  185 1   
   183  184  186 1   
   184  187  188 1   
   185  187  189 1   
@<TRIPOS>SUBSTRUCTURE
     1 MOL         1 TEMP              0 ****  ****    0 ROOT
