@<TRIPOS>MOLECULE
MOL
  189   185     1     0     0
SMALL
resp


@<TRIPOS>ATOM
      1 C1          0.1680    3.9880   -5.3510 c3        1 MOL     -0.371688
      2 C2          0.5530    3.6330   -3.8770 c         1 MOL      0.763228
      3 O1         -0.3080    3.6930   -3.0580 o         1 MOL     -0.590659
      4 H1          0.8890    4.6990   -5.7530 hc        1 MOL      0.092471
      5 H2          0.1750    3.0810   -5.9560 hc        1 MOL      0.092471
      6 H3         -0.8280    4.4300   -5.3700 hc        1 MOL      0.092471
      7 N1          1.7530    3.1530   -3.6430 n         1 MOL     -0.624805
      8 C3          2.1780    2.5270   -2.3270 c3        1 MOL      0.143673
      9 C4          2.4250    3.5770   -1.3010 c         1 MOL      0.431894
     10 O2          3.3130    4.4070   -1.5580 o         1 MOL     -0.542494
     11 C5          3.3750    1.5740   -2.5700 c3        1 MOL     -0.030129
     12 C6          3.7930    0.7460   -1.3190 c         1 MOL      0.694065
     13 O3          3.1000    0.8930   -0.2620 o         1 MOL     -0.736707
     14 O4          4.8000    0.0360   -1.3320 o         1 MOL     -0.736707
     15 H4          2.4580    3.1650   -4.3670 hn        1 MOL      0.319720
     16 H5          1.3290    1.9400   -1.9720 h1        1 MOL      0.034429
     17 H6          4.1630    2.1870   -2.9980 hc        1 MOL      0.022783
     18 H7          3.1480    0.9070   -3.4060 hc        1 MOL      0.022783
     19 N2          1.6800    3.7010   -0.1150 n         1 MOL     -0.290553
     20 C7          1.8160    4.7410    0.8880 c3        1 MOL      0.250397
     21 C8          2.8210    4.5240    2.0330 c         1 MOL      0.337977
     22 O5          3.4820    5.4930    2.4500 o         1 MOL     -0.532876
     23 C9          0.4010    4.9440    1.4980 c3        1 MOL     -0.264849
     24 C10        -0.5080    5.7050    0.5170 c3        1 MOL      0.350974
     25 C11        -0.0040    6.8740   -0.2970 c3        1 MOL     -0.244090
     26 C12         0.5790    6.4550   -1.6630 c3        1 MOL      0.326601
     27 N3          0.9940    7.6390   -2.4050 n4        1 MOL     -0.448625
     28 H8          0.9510    3.0470    0.1390 hn        1 MOL      0.118919
     29 H9          2.1260    5.6950    0.4700 h1        1 MOL     -0.020794
     30 H10         0.5290    5.6210    2.3400 hc        1 MOL      0.064865
     31 H11        -0.1620    4.0450    1.7690 hc        1 MOL      0.064865
     32 H12        -1.3560    6.0290    1.1320 hc        1 MOL     -0.044986
     33 H13        -1.0390    4.9660   -0.0810 hc        1 MOL     -0.044986
     34 H14         0.7050    7.4660    0.2700 hc        1 MOL      0.044113
     35 H15        -0.8940    7.4580   -0.5600 hc        1 MOL      0.044113
     36 H16        -0.1650    5.9430   -2.2660 hx        1 MOL     -0.006021
     37 H17         1.3600    5.6920   -1.6450 hx        1 MOL     -0.006021
     38 H18         1.6730    8.1590   -1.8660 hn        1 MOL      0.330408
     39 H19         1.4120    7.3670   -3.2830 hn        1 MOL      0.330408
     40 H20         0.2430    8.3050   -2.4560 hn        1 MOL      0.330408
     41 N4          2.9260    3.2890    2.6320 n         1 MOL     -0.262803
     42 C13         4.0080    2.9790    3.5910 c3        1 MOL      0.081155
     43 C14         5.2380    2.4580    2.8680 c         1 MOL      0.391319
     44 O6          6.2130    2.1290    3.5180 o         1 MOL     -0.516614
     45 C15         3.3810    2.0210    4.6420 c3        1 MOL     -0.300173
     46 C16         2.7380    0.7180    4.2480 c         1 MOL      0.889965
     47 O7          2.0500    0.1500    5.0980 o         1 MOL     -0.728555
     48 O8          2.7910    0.2180    3.1260 o         1 MOL     -0.728555
     49 H21         2.3540    2.5280    2.3070 hn        1 MOL      0.191933
     50 H22         4.2650    3.9030    4.1070 h1        1 MOL      0.106833
     51 H23         2.6540    2.6610    5.1480 hc        1 MOL      0.062666
     52 H24         4.1240    1.8080    5.4080 hc        1 MOL      0.062666
     53 N5          5.1610    2.1910    1.5300 n         1 MOL     -0.161279
     54 C17         6.4280    1.8850    0.7860 c3        1 MOL     -0.453304
     55 C18         6.9980    0.4150    0.8840 c         1 MOL      0.659193
     56 O9          8.1110    0.2320    0.4140 o         1 MOL     -0.586534
     57 H25         4.3350    2.3610    0.9650 hn        1 MOL      0.261117
     58 H26         7.1880    2.5740    1.1340 h1        1 MOL      0.168583
     59 H27         6.1730    2.0140   -0.2680 h1        1 MOL      0.168583
     60 N6          6.2900   -0.5690    1.5180 n         1 MOL     -0.247564
     61 C19         6.7750   -1.9170    1.7600 c3        1 MOL     -0.128100
     62 C20         6.8850   -2.7490    0.5020 c         1 MOL      0.489299
     63 O10         7.5290   -3.7650    0.5890 o         1 MOL     -0.552713
     64 C21         5.8800   -2.5720    2.8580 c3        1 MOL     -0.201410
     65 C22         4.4220   -2.8020    2.5420 c         1 MOL      0.677383
     66 O11         3.6660   -3.3510    3.3770 o         1 MOL     -0.650673
     67 O12         3.8960   -2.2480    1.5330 o         1 MOL     -0.650673
     68 H28         5.3420   -0.2950    1.7270 hn        1 MOL      0.188052
     69 H29         7.8010   -1.7910    2.1260 h1        1 MOL      0.116304
     70 H30         5.9470   -2.0290    3.7980 hc        1 MOL      0.084501
     71 H31         6.2590   -3.5630    3.1160 hc        1 MOL      0.084501
     72 N7          6.3180   -2.3120   -0.5940 n         1 MOL     -0.236056
     73 C23         6.4410   -2.7870   -1.9940 c3        1 MOL     -0.218745
     74 C24         5.3550   -3.7970   -2.3170 c         1 MOL      0.662034
     75 O13         5.5900   -4.7720   -2.9590 o         1 MOL     -0.555123
     76 H32         5.9130   -1.3890   -0.5240 hn        1 MOL      0.329738
     77 H33         7.4550   -3.1770   -2.1340 h1        1 MOL      0.102652
     78 H34         6.2890   -1.9420   -2.6550 h1        1 MOL      0.102652
     79 N8          4.1280   -3.4380   -1.8510 n         1 MOL     -0.358037
     80 C25         2.8730   -4.1770   -2.2090 c3        1 MOL     -0.437253
     81 C26         1.6660   -3.1850   -2.1170 c         1 MOL      1.140031
     82 O14         1.6400   -2.3950   -1.1580 o         1 MOL     -0.780350
     83 C27         2.6480   -5.4420   -1.3340 c3        1 MOL      0.491017
     84 C28         3.2710   -6.7210   -1.8370 c3        1 MOL     -0.324417
     85 O15         3.1280   -5.3500   -0.0390 oh        1 MOL     -0.685328
     86 H35         3.9890   -2.5290   -1.4230 hn        1 MOL      0.197399
     87 H36         2.9620   -4.5520   -3.2250 h1        1 MOL      0.146045
     88 H37         1.5750   -5.6280   -1.3640 h1        1 MOL      0.020963
     89 H38         4.0850   -5.3780    0.0280 ho        1 MOL      0.454514
     90 H39         4.3430   -6.5540   -1.9590 hc        1 MOL      0.075096
     91 H40         3.0160   -7.5420   -1.1790 hc        1 MOL      0.075096
     92 H41         2.8560   -7.0230   -2.8110 hc        1 MOL      0.075096
     93 N9          0.7260   -3.1730   -3.0350 n         1 MOL     -0.934973
     94 C29        -0.4400   -2.3110   -2.8130 c3        1 MOL      0.028757
     95 C30        -1.4930   -2.9790   -1.8990 c         1 MOL      0.478046
     96 O16        -1.5920   -4.1880   -1.8620 o         1 MOL     -0.517952
     97 C31        -0.9710   -1.8760   -4.1870 c3        1 MOL      0.354077
     98 C32         0.1770   -1.3140   -5.0700 c3        1 MOL      0.185216
     99 C33        -2.0650   -0.8360   -4.0050 c3        1 MOL     -0.502215
    100 C34        -0.2030   -1.0710   -6.5450 c3        1 MOL     -0.372008
    101 H42         0.5870   -4.0090   -3.6000 hn        1 MOL      0.380730
    102 H43        -0.0710   -1.3990   -2.3500 h1        1 MOL      0.072439
    103 H44        -1.3870   -2.6820   -4.7860 hc        1 MOL     -0.036667
    104 H45         1.1020   -1.8880   -5.1660 hc        1 MOL     -0.013122
    105 H46         0.5020   -0.3660   -4.6230 hc        1 MOL     -0.013122
    106 H47        -2.3650   -0.4160   -4.9630 hc        1 MOL      0.091374
    107 H48        -2.9610   -1.2730   -3.5740 hc        1 MOL      0.091374
    108 H49        -1.8250    0.0270   -3.3780 hc        1 MOL      0.091374
    109 H50        -0.3310   -2.0840   -6.9490 hc        1 MOL      0.087827
    110 H51        -1.0630   -0.4080   -6.5750 hc        1 MOL      0.087827
    111 H52         0.5600   -0.5290   -7.1020 hc        1 MOL      0.087827
    112 N10        -2.2350   -2.1600   -1.1560 n         1 MOL     -0.141332
    113 C35        -3.5250   -2.5690   -0.5550 c3        1 MOL     -0.031309
    114 C36        -4.7520   -1.9340   -1.1450 c         1 MOL      0.362719
    115 O17        -4.8100   -0.8510   -1.7430 o         1 MOL     -0.301123
    116 C37        -3.4320   -2.2130    0.9520 c3        1 MOL      0.191755
    117 C38        -2.5330   -3.1680    1.7280 c3        1 MOL     -0.412498
    118 O18        -3.0660   -0.8610    1.1200 oh        1 MOL     -0.507280
    119 H53        -2.0420   -1.1710   -1.1240 hn        1 MOL      0.154432
    120 H54        -3.6160   -3.6480   -0.6770 h1        1 MOL      0.056500
    121 H55        -4.4610   -2.2760    1.3190 h1        1 MOL      0.004439
    122 H56        -2.1650   -0.8970    0.7990 ho        1 MOL      0.320207
    123 H57        -2.3380   -2.7790    2.7290 hc        1 MOL      0.129455
    124 H58        -3.1310   -4.0550    1.9600 hc        1 MOL      0.129455
    125 H59        -1.6790   -3.5000    1.1240 hc        1 MOL      0.129455
    126 N11        -5.9190   -2.4540   -0.7510 n         1 MOL     -0.275677
    127 C39        -7.3220   -1.8440   -0.9540 c3        1 MOL     -0.462397
    128 C40        -7.3740   -0.4920   -0.1900 c         1 MOL      0.611484
    129 O19        -7.8730    0.4820   -0.7570 o         1 MOL     -0.497732
    130 C41        -8.6550   -2.6150   -0.7400 c3        1 MOL      0.470140
    131 C42        -8.7210   -3.9840   -1.4690 c3        1 MOL     -0.469899
    132 O20        -8.7310   -2.9730    0.5320 oh        1 MOL     -0.622129
    133 H60        -5.8110   -3.2010   -0.0870 hn        1 MOL      0.271844
    134 H61        -7.2840   -1.5910   -2.0210 h1        1 MOL      0.222436
    135 H62        -9.5230   -2.0260   -1.0310 h1        1 MOL      0.011402
    136 H63        -9.5900   -3.3960    0.6170 ho        1 MOL      0.393259
    137 H64        -7.9640   -4.6640   -1.0770 hc        1 MOL      0.126905
    138 H65        -9.7060   -4.4280   -1.3080 hc        1 MOL      0.126905
    139 H66        -8.6220   -3.7510   -2.5270 hc        1 MOL      0.126905
    140 N12        -6.8510   -0.4290    1.0270 n         1 MOL     -0.502501
    141 C43        -6.5740    0.7240    1.8400 c3        1 MOL     -0.014658
    142 C44        -5.7540    1.7830    1.0420 c         1 MOL      0.368186
    143 O21        -6.0670    2.9650    1.2210 o         1 MOL     -0.543100
    144 C45        -5.8760    0.3340    3.1630 c3        1 MOL     -0.084881
    145 C46        -6.8000   -0.2180    4.2310 c3        1 MOL      0.151037
    146 C47        -6.0310   -0.7720    5.4050 c3        1 MOL      0.049744
    147 C48        -6.9130   -1.1410    6.6400 c3        1 MOL      0.008242
    148 N13        -8.0400   -1.9600    6.2540 n4        1 MOL     -0.088843
    149 H67        -6.4490   -1.2830    1.3880 hn        1 MOL      0.349154
    150 H68        -7.5160    1.2420    2.0290 h1        1 MOL      0.124542
    151 H69        -5.2570    1.1840    3.4630 hc        1 MOL      0.057600
    152 H70        -5.1300   -0.4220    2.8910 hc        1 MOL      0.057600
    153 H71        -7.2880   -1.1310    3.8960 hc        1 MOL     -0.049441
    154 H72        -7.5180    0.5680    4.4810 hc        1 MOL     -0.049441
    155 H73        -5.2520   -0.0980    5.7800 hc        1 MOL      0.012101
    156 H74        -5.6320   -1.7770    5.2160 hc        1 MOL      0.012101
    157 H75        -7.2280   -0.2180    7.1210 hx        1 MOL      0.073071
    158 H76        -6.3310   -1.7030    7.3640 hx        1 MOL      0.073071
    159 H77        -7.8250   -2.9010    5.9750 hn        1 MOL      0.227424
    160 H78        -8.6400   -1.9240    7.0620 hn        1 MOL      0.227424
    161 H79        -8.6180   -1.4580    5.6000 hn        1 MOL      0.227424
    162 N14        -4.8000    1.4440    0.1780 n         1 MOL      0.167898
    163 C49        -4.0950    2.3820   -0.7280 c3        1 MOL     -0.036610
    164 C50        -4.7250    2.6600   -2.1290 c         1 MOL      0.447802
    165 O22        -4.6830    3.8460   -2.4870 o         1 MOL     -0.549805
    166 C51        -2.6330    2.0120   -1.0020 c3        1 MOL      0.024014
    167 C52        -1.9190    1.8680    0.3370 c3        1 MOL      0.000619
    168 C53        -0.6690    1.0050    0.3120 c         1 MOL      0.752499
    169 O23        -0.7930   -0.1820    0.0450 o         1 MOL     -0.728181
    170 O24         0.3850    1.3340    0.9380 o         1 MOL     -0.728181
    171 H80        -4.5810    0.4660    0.0740 hn        1 MOL     -0.080905
    172 H81        -4.0090    3.3520   -0.2340 h1        1 MOL      0.040197
    173 H82        -2.2090    2.8390   -1.5660 hc        1 MOL      0.015002
    174 H83        -2.6810    1.0540   -1.5280 hc        1 MOL      0.015002
    175 H84        -2.6460    1.7400    1.1400 hc        1 MOL      0.000266
    176 H85        -1.5860    2.8870    0.5100 hc        1 MOL      0.000266
    177 N15        -5.4690    1.7260   -2.6880 n         1 MOL     -0.132640
    178 C54        -6.3580    2.0150   -3.8430 c3        1 MOL     -0.306100
    179 H86        -5.8430    2.6760   -4.5410 h1        1 MOL      0.120611
    180 H87        -6.6140    1.0830   -4.3480 h1        1 MOL      0.120611
    181 H88        -7.2690    2.4990   -3.4900 h1        1 MOL      0.120611
    182 H89        -5.5170    0.8180   -2.2480 hn        1 MOL      0.106870
    183 Ca1         1.7200   -0.9810    1.0080 Ca        1 MOL      1.745140
    184 O25         1.4080   -3.5810    1.9930 oh        1 MOL     -0.867015
    185 H90         1.8340   -4.1190    1.3260 ho        1 MOL      0.402221
    186 H91         2.0660   -3.4910    2.6800 ho        1 MOL      0.402221
    187 O26         0.3210   -1.0630    3.3490 oh        1 MOL     -0.867015
    188 H92        -0.3420   -1.2840    4.0130 ho        1 MOL      0.402221
    189 H93         0.9240   -0.4840    3.8100 ho        1 MOL      0.402221
@<TRIPOS>BOND
     1    1    2 1   
     2    1    4 1   
     3    1    5 1   
     4    1    6 1   
     5    2    3 2   
     6    2    7 1   
     7    7    8 1   
     8    7   15 1   
     9    8    9 1   
    10    8   11 1   
    11    8   16 1   
    12    9   10 2   
    13    9   19 1   
    14   11   12 1   
    15   11   17 1   
    16   11   18 1   
    17   12   13 1   
    18   12   14 1   
    19   19   20 1   
    20   19   28 1   
    21   20   21 1   
    22   20   23 1   
    23   20   29 1   
    24   21   22 2   
    25   21   41 1   
    26   23   24 1   
    27   23   30 1   
    28   23   31 1   
    29   24   25 1   
    30   24   32 1   
    31   24   33 1   
    32   25   26 1   
    33   25   34 1   
    34   25   35 1   
    35   26   27 1   
    36   26   36 1   
    37   26   37 1   
    38   27   38 1   
    39   27   39 1   
    40   27   40 1   
    41   41   42 1   
    42   41   49 1   
    43   42   43 1   
    44   42   45 1   
    45   42   50 1   
    46   43   44 2   
    47   43   53 1   
    48   45   46 1   
    49   45   51 1   
    50   45   52 1   
    51   46   47 1   
    52   46   48 1   
    53   53   54 1   
    54   53   57 1   
    55   54   55 1   
    56   54   58 1   
    57   54   59 1   
    58   55   56 2   
    59   55   60 1   
    60   60   61 1   
    61   60   68 1   
    62   61   62 1   
    63   61   64 1   
    64   61   69 1   
    65   62   63 2   
    66   62   72 1   
    67   64   65 1   
    68   64   70 1   
    69   64   71 1   
    70   65   66 1   
    71   65   67 1   
    72   72   73 1   
    73   72   76 1   
    74   73   74 1   
    75   73   77 1   
    76   73   78 1   
    77   74   75 2   
    78   74   79 1   
    79   79   80 1   
    80   79   86 1   
    81   80   81 1   
    82   80   83 1   
    83   80   87 1   
    84   81   82 2   
    85   81   93 1   
    86   83   84 1   
    87   83   85 1   
    88   83   88 1   
    89   84   90 1   
    90   84   91 1   
    91   84   92 1   
    92   85   89 1   
    93   93   94 1   
    94   93  101 1   
    95   94   95 1   
    96   94   97 1   
    97   94  102 1   
    98   95   96 2   
    99   95  112 1   
   100   97   98 1   
   101   97   99 1   
   102   97  103 1   
   103   98  100 1   
   104   98  104 1   
   105   98  105 1   
   106   99  106 1   
   107   99  107 1   
   108   99  108 1   
   109  100  109 1   
   110  100  110 1   
   111  100  111 1   
   112  112  113 1   
   113  112  119 1   
   114  113  114 1   
   115  113  116 1   
   116  113  120 1   
   117  114  115 2   
   118  114  126 1   
   119  116  117 1   
   120  116  118 1   
   121  116  121 1   
   122  117  123 1   
   123  117  124 1   
   124  117  125 1   
   125  118  122 1   
   126  126  127 1   
   127  126  133 1   
   128  127  128 1   
   129  127  130 1   
   130  127  134 1   
   131  128  129 2   
   132  128  140 1   
   133  130  131 1   
   134  130  132 1   
   135  130  135 1   
   136  131  137 1   
   137  131  138 1   
   138  131  139 1   
   139  132  136 1   
   140  140  141 1   
   141  140  149 1   
   142  141  142 1   
   143  141  144 1   
   144  141  150 1   
   145  142  143 2   
   146  142  162 1   
   147  144  145 1   
   148  144  151 1   
   149  144  152 1   
   150  145  146 1   
   151  145  153 1   
   152  145  154 1   
   153  146  147 1   
   154  146  155 1   
   155  146  156 1   
   156  147  148 1   
   157  147  157 1   
   158  147  158 1   
   159  148  159 1   
   160  148  160 1   
   161  148  161 1   
   162  162  163 1   
   163  162  171 1   
   164  163  164 1   
   165  163  166 1   
   166  163  172 1   
   167  164  165 2   
   168  164  177 1   
   169  166  167 1   
   170  166  173 1   
   171  166  174 1   
   172  167  168 1   
   173  167  175 1   
   174  167  176 1   
   175  168  169 1   
   176  168  170 1   
   177  177  178 1   
   178  177  182 1   
   179  178  179 1   
   180  178  180 1   
   181  178  181 1   
   182  184  185 1   
   183  184  186 1   
   184  187  188 1   
   185  187  189 1   
@<TRIPOS>SUBSTRUCTURE
     1 MOL         1 TEMP              0 ****  ****    0 ROOT
