@<TRIPOS>MOLECULE
MOL
  189   185     1     0     0
SMALL
resp


@<TRIPOS>ATOM
      1 C1          0.4510    0.8170    5.9090 c3        1 MOL     -0.420891
      2 C2         -0.1640    0.9390    4.5330 c         1 MOL      0.875354
      3 O1          0.2740    1.7190    3.7050 o         1 MOL     -0.729797
      4 H1          1.0140   -0.1140    5.9740 hc        1 MOL      0.113325
      5 H2          1.1220    1.6590    6.0840 hc        1 MOL      0.113325
      6 H3         -0.3380    0.8180    6.6620 hc        1 MOL      0.113325
      7 N1         -1.3520    0.4070    4.2760 n         1 MOL     -0.633230
      8 C3         -2.1310    0.6090    3.0220 c3        1 MOL      0.273413
      9 C4         -2.6540    1.9870    2.9340 c         1 MOL      0.382600
     10 O2         -3.5030    2.3730    3.8030 o         1 MOL     -0.542270
     11 C5         -3.1980   -0.4760    2.8020 c3        1 MOL     -0.355898
     12 C6         -4.0790   -0.1460    1.6040 c         1 MOL      0.655802
     13 O3         -3.6000    0.4350    0.6280 o         1 MOL     -0.621680
     14 O4         -5.3000   -0.5290    1.5640 o         1 MOL     -0.621680
     15 H4         -1.9020    0.1220    5.0690 hn        1 MOL      0.311403
     16 H5         -1.4740    0.4450    2.1660 h1        1 MOL      0.021558
     17 H6         -3.8480   -0.6620    3.6600 hc        1 MOL      0.094782
     18 H7         -2.7470   -1.4200    2.5100 hc        1 MOL      0.094782
     19 N2         -2.1940    2.7660    1.9340 n         1 MOL     -0.045619
     20 C7         -2.4030    4.2590    1.8450 c3        1 MOL     -0.105627
     21 C8         -3.6410    4.6440    1.1250 c         1 MOL      0.435574
     22 O5         -4.4270    5.4870    1.5080 o         1 MOL     -0.555655
     23 C9         -1.2000    5.0070    1.2580 c3        1 MOL     -0.054394
     24 C10         0.0660    4.9740    2.1200 c3        1 MOL      0.162317
     25 C11         1.2070    5.6800    1.3700 c3        1 MOL     -0.134624
     26 C12         0.9360    7.1830    1.2690 c3        1 MOL      0.198397
     27 N3          2.0770    8.0170    0.7190 n4        1 MOL     -0.560000
     28 H8         -1.3780    2.3180    1.5410 hn        1 MOL      0.167335
     29 H9         -2.5200    4.6250    2.8670 h1        1 MOL      0.067942
     30 H10        -1.5240    6.0290    1.0460 hc        1 MOL      0.025262
     31 H11        -0.9050    4.6970    0.2620 hc        1 MOL      0.025262
     32 H12         0.4260    3.9630    2.3190 hc        1 MOL      0.009660
     33 H13        -0.0680    5.5710    3.0230 hc        1 MOL      0.009660
     34 H14         1.4090    5.2130    0.4010 hc        1 MOL      0.037803
     35 H15         2.1070    5.6380    1.9800 hc        1 MOL      0.037803
     36 H16         0.5460    7.6300    2.1850 hx        1 MOL      0.043823
     37 H17         0.0880    7.2290    0.5850 hx        1 MOL      0.043823
     38 H18         1.8010    8.9650    0.5070 hn        1 MOL      0.370781
     39 H19         2.8010    7.9320    1.4200 hn        1 MOL      0.370781
     40 H20         2.3720    7.6470   -0.1730 hn        1 MOL      0.370781
     41 N4         -3.7720    3.9820   -0.0110 n         1 MOL     -0.112036
     42 C13        -4.7810    4.3520   -0.9890 c3        1 MOL     -0.077965
     43 C14        -6.0490    3.5100   -0.9350 c         1 MOL      0.489441
     44 O6         -6.9770    3.7250   -1.6880 o         1 MOL     -0.524076
     45 C15        -4.1480    4.3810   -2.3620 c3        1 MOL     -0.023682
     46 C16        -3.3080    3.1040   -2.7870 c         1 MOL      0.721376
     47 O7         -2.8460    3.0090   -3.9290 o         1 MOL     -0.699941
     48 O8         -3.1080    2.1550   -1.9340 o         1 MOL     -0.699941
     49 H21        -3.0700    3.2960   -0.2230 hn        1 MOL      0.048118
     50 H22        -5.0380    5.3770   -0.7280 h1        1 MOL      0.094484
     51 H23        -3.4150    5.1860   -2.4020 hc        1 MOL     -0.002644
     52 H24        -4.9300    4.6070   -3.0980 hc        1 MOL     -0.002644
     53 N5         -6.1780    2.5700    0.0010 n         1 MOL     -0.362297
     54 C17        -7.4010    1.7980    0.2660 c3        1 MOL     -0.013116
     55 C18        -7.7310    0.6590   -0.7200 c         1 MOL      0.441988
     56 O9         -8.8410    0.4440   -1.1230 o         1 MOL     -0.549699
     57 H25        -5.3690    2.4550    0.5950 hn        1 MOL      0.283561
     58 H26        -8.3330    2.3780    0.3050 h1        1 MOL      0.072824
     59 H27        -7.3790    1.4220    1.2930 h1        1 MOL      0.072824
     60 N6         -6.6980   -0.0580   -1.1990 n         1 MOL     -0.016872
     61 C19        -6.8780   -1.0390   -2.2400 c3        1 MOL     -0.002133
     62 C20        -6.8600   -2.4750   -1.5960 c         1 MOL      0.398934
     63 O10        -7.0740   -3.4590   -2.2400 o         1 MOL     -0.492325
     64 C21        -5.7130   -0.9810   -3.3720 c3        1 MOL     -0.271661
     65 C22        -4.2260   -1.1070   -2.9760 c         1 MOL      0.786126
     66 O11        -3.3150   -0.9980   -3.7580 o         1 MOL     -0.702378
     67 O12        -4.0280   -1.3740   -1.7720 o         1 MOL     -0.702378
     68 H28        -5.8070    0.0900   -0.7570 hn        1 MOL     -0.032840
     69 H29        -7.8600   -0.9610   -2.6920 h1        1 MOL      0.114585
     70 H30        -5.7930   -0.0040   -3.8640 hc        1 MOL      0.073527
     71 H31        -5.9820   -1.6980   -4.1470 hc        1 MOL      0.073527
     72 N7         -6.5270   -2.5830   -0.2920 n         1 MOL     -0.239328
     73 C23        -6.5420   -3.8830    0.3900 c3        1 MOL     -0.095416
     74 C24        -5.1240   -4.4750    0.4700 c         1 MOL      0.541527
     75 O13        -5.0410   -5.6750    0.9450 o         1 MOL     -0.610907
     76 H32        -6.1650   -1.7540    0.1740 hn        1 MOL      0.188925
     77 H33        -7.1860   -4.5120   -0.2270 h1        1 MOL      0.085950
     78 H34        -6.8620   -3.7540    1.4280 h1        1 MOL      0.085950
     79 N8         -4.0800   -3.7940    0.0390 n         1 MOL     -0.306403
     80 C25        -2.7630   -4.4350   -0.0020 c3        1 MOL     -0.076435
     81 C26        -1.6610   -3.4910    0.4470 c         1 MOL      0.615911
     82 O14        -1.7470   -2.3110    0.3450 o         1 MOL     -0.680183
     83 C27        -2.3980   -5.0350   -1.2810 c3        1 MOL      0.580097
     84 C28        -2.9800   -6.4540   -1.4720 c3        1 MOL     -0.530516
     85 O15        -2.9430   -4.2800   -2.3060 oh        1 MOL     -0.679207
     86 H35        -4.2030   -2.8690   -0.3350 hn        1 MOL      0.316672
     87 H36        -2.6810   -5.2400    0.7370 h1        1 MOL      0.053658
     88 H37        -1.3210   -5.0940   -1.3590 h1        1 MOL     -0.101177
     89 H38        -2.5900   -3.3870   -2.2710 ho        1 MOL      0.469216
     90 H39        -2.6140   -6.7820   -2.4390 hc        1 MOL      0.137026
     91 H40        -2.6270   -7.1170   -0.6720 hc        1 MOL      0.137026
     92 H41        -4.0590   -6.4730   -1.5820 hc        1 MOL      0.137026
     93 N9         -0.4870   -4.0580    0.8850 n         1 MOL     -0.521259
     94 C29         0.7410   -3.2990    1.2630 c3        1 MOL      0.148662
     95 C30         1.7980   -3.6250    0.2820 c         1 MOL      0.343277
     96 O16         2.0670   -4.8280    0.0100 o         1 MOL     -0.532102
     97 C31         1.1120   -3.6070    2.6790 c3        1 MOL      0.143500
     98 C32        -0.0140   -3.3700    3.6960 c3        1 MOL      0.147840
     99 C33         2.3130   -2.7020    3.1200 c3        1 MOL     -0.457800
    100 C34         0.1820   -4.1740    5.0190 c3        1 MOL     -0.296153
    101 H42        -0.6060   -5.0540    1.0230 hn        1 MOL      0.262210
    102 H43         0.5760   -2.2370    1.1030 h1        1 MOL      0.117780
    103 H44         1.4150   -4.6510    2.7410 hc        1 MOL      0.004677
    104 H45        -0.9640   -3.7080    3.2850 hc        1 MOL     -0.033302
    105 H46        -0.0670   -2.2930    3.8570 hc        1 MOL     -0.033302
    106 H47         2.0950   -1.6680    2.8740 hc        1 MOL      0.083877
    107 H48         2.4960   -2.7560    4.1940 hc        1 MOL      0.083877
    108 H49         3.2240   -2.9090    2.5570 hc        1 MOL      0.083877
    109 H50         1.0950   -3.9010    5.5510 hc        1 MOL      0.074714
    110 H51        -0.7080   -4.1730    5.6380 hc        1 MOL      0.074714
    111 H52         0.3790   -5.1660    4.6080 hc        1 MOL      0.074714
    112 N10         2.4960   -2.5810   -0.1960 n         1 MOL     -0.087894
    113 C35         3.6330   -2.7690   -1.0950 c3        1 MOL     -0.110728
    114 C36         4.9580   -2.7060   -0.3610 c         1 MOL      0.557358
    115 O17         5.0460   -2.1900    0.7340 o         1 MOL     -0.410936
    116 C37         3.6540   -1.6510   -2.2430 c3        1 MOL      0.130432
    117 C38         2.3410   -1.5840   -3.0760 c3        1 MOL     -0.330436
    118 O18         3.7980   -0.4410   -1.5820 oh        1 MOL     -0.519595
    119 H53         2.1630   -1.6400   -0.0500 hn        1 MOL      0.293360
    120 H54         3.6980   -3.7500   -1.5580 h1        1 MOL      0.068100
    121 H55         4.5100   -1.8480   -2.8960 h1        1 MOL      0.050072
    122 H56         3.1840    0.2020   -1.9540 ho        1 MOL      0.417261
    123 H57         2.4600   -0.6330   -3.5950 hc        1 MOL      0.098834
    124 H58         2.2820   -2.4020   -3.7870 hc        1 MOL      0.098834
    125 H59         1.4480   -1.5040   -2.4530 hc        1 MOL      0.098834
    126 N11         6.0890   -3.1340   -0.9500 n         1 MOL     -0.431820
    127 C39         7.3950   -2.7670   -0.6030 c3        1 MOL     -0.118123
    128 C40         7.5380   -1.2320   -0.2190 c         1 MOL      0.328841
    129 O19         7.9380   -0.8420    0.8890 o         1 MOL     -0.440773
    130 C41         8.4290   -3.0670   -1.6940 c3        1 MOL      0.244639
    131 C42         8.6190   -4.5480   -1.7500 c3        1 MOL     -0.286643
    132 O20         8.0920   -2.3570   -2.9700 oh        1 MOL     -0.634153
    133 H60         6.0180   -3.4900   -1.8970 hn        1 MOL      0.305966
    134 H61         7.6660   -3.3220    0.2930 h1        1 MOL      0.144910
    135 H62         9.3580   -2.5460   -1.4610 h1        1 MOL      0.047146
    136 H63         8.9230   -2.4040   -3.4470 ho        1 MOL      0.407039
    137 H64         9.1100   -4.7730   -2.7020 hc        1 MOL      0.091981
    138 H65         9.1990   -4.9870   -0.9370 hc        1 MOL      0.091981
    139 H66         7.6590   -5.0510   -1.8220 hc        1 MOL      0.091981
    140 N12         6.9850   -0.3510   -1.1020 n         1 MOL     -0.167056
    141 C43         7.0630    1.1170   -0.8180 c3        1 MOL     -0.229876
    142 C44         6.2440    1.5210    0.4280 c         1 MOL      0.365324
    143 O21         6.6450    2.2890    1.2860 o         1 MOL     -0.525939
    144 C45         6.6710    1.9310   -2.0860 c3        1 MOL      0.050891
    145 C46         6.9640    3.4460   -1.9720 c3        1 MOL     -0.015822
    146 C47         6.4750    4.2300   -3.2320 c3        1 MOL     -0.009959
    147 C48         7.1800    3.8220   -4.5580 c3        1 MOL      0.075985
    148 N13         6.8990    4.7810   -5.6470 n4        1 MOL     -0.355443
    149 H67         6.6820   -0.7600   -1.9720 hn        1 MOL      0.235984
    150 H68         8.0800    1.3770   -0.5170 h1        1 MOL      0.155269
    151 H69         5.5890    1.8660   -2.2180 hc        1 MOL     -0.013529
    152 H70         7.1040    1.4560   -2.9650 hc        1 MOL     -0.013529
    153 H71         8.0510    3.5290   -1.9080 hc        1 MOL      0.039392
    154 H72         6.4670    3.8980   -1.1090 hc        1 MOL      0.039392
    155 H73         6.8150    5.2410   -2.9810 hc        1 MOL      0.017541
    156 H74         5.3950    4.1780   -3.3450 hc        1 MOL      0.017541
    157 H75         6.7010    2.9040   -4.9000 hx        1 MOL      0.078208
    158 H76         8.2270    3.5900   -4.3650 hx        1 MOL      0.078208
    159 H77         7.5260    4.6150   -6.4280 hn        1 MOL      0.274442
    160 H78         5.9720    4.6840   -6.0450 hn        1 MOL      0.274442
    161 H79         7.0140    5.7290   -5.3040 hn        1 MOL      0.274442
    162 N14         5.0660    0.9370    0.6190 n         1 MOL     -0.015709
    163 C49         4.1770    1.1560    1.8660 c3        1 MOL     -0.338541
    164 C50         4.7010    0.5070    3.2030 c         1 MOL      0.584378
    165 O22         4.3220    0.9190    4.2810 o         1 MOL     -0.564332
    166 C51         2.8030    0.6470    1.6040 c3        1 MOL      0.344796
    167 C52         2.1760    1.4770    0.5100 c3        1 MOL     -0.244695
    168 C53         0.7770    0.9700    0.0400 c         1 MOL      0.732672
    169 O23        -0.3010    1.6520    0.0080 o         1 MOL     -0.779973
    170 O24         0.5650   -0.1630   -0.3490 o         1 MOL     -0.779973
    171 H80         4.7660    0.3800   -0.1560 hn        1 MOL      0.078025
    172 H81         4.1460    2.2250    2.0860 h1        1 MOL      0.126952
    173 H82         2.1780    0.7150    2.4930 hc        1 MOL     -0.011531
    174 H83         2.9700   -0.3280    1.1550 hc        1 MOL     -0.011531
    175 H84         2.7220    1.5590   -0.4350 hc        1 MOL      0.031946
    176 H85         2.0710    2.5210    0.8160 hc        1 MOL      0.031946
    177 N15         5.5790   -0.4940    3.0730 n         1 MOL     -0.135121
    178 C54         6.3230   -1.0500    4.1630 c3        1 MOL     -0.377155
    179 H86         5.7750   -1.8940    4.5820 h1        1 MOL      0.130249
    180 H87         7.2950   -1.3890    3.8060 h1        1 MOL      0.130249
    181 H88         6.4620   -0.2900    4.9330 h1        1 MOL      0.130249
    182 H89         5.9300   -0.6180    2.1320 hn        1 MOL      0.220262
    183 Ca1        -1.9620   -0.0760   -1.1930 Ca        1 MOL      1.809543
    184 O25        -1.1780    0.8120   -3.5790 oh        1 MOL     -0.946937
    185 H90        -1.6900    1.6080   -3.6880 ho        1 MOL      0.432896
    186 H91        -1.2070    0.3860   -4.4350 ho        1 MOL      0.432896
    187 O26        -0.9660   -2.3100   -2.5190 oh        1 MOL     -0.946937
    188 H92        -1.1110   -2.6710   -3.3940 ho        1 MOL      0.432896
    189 H93        -0.0160   -2.1940   -2.4670 ho        1 MOL      0.432896
@<TRIPOS>BOND
     1    1    2 1   
     2    1    4 1   
     3    1    5 1   
     4    1    6 1   
     5    2    3 2   
     6    2    7 1   
     7    7    8 1   
     8    7   15 1   
     9    8    9 1   
    10    8   11 1   
    11    8   16 1   
    12    9   10 2   
    13    9   19 1   
    14   11   12 1   
    15   11   17 1   
    16   11   18 1   
    17   12   13 1   
    18   12   14 1   
    19   19   20 1   
    20   19   28 1   
    21   20   21 1   
    22   20   23 1   
    23   20   29 1   
    24   21   22 2   
    25   21   41 1   
    26   23   24 1   
    27   23   30 1   
    28   23   31 1   
    29   24   25 1   
    30   24   32 1   
    31   24   33 1   
    32   25   26 1   
    33   25   34 1   
    34   25   35 1   
    35   26   27 1   
    36   26   36 1   
    37   26   37 1   
    38   27   38 1   
    39   27   39 1   
    40   27   40 1   
    41   41   42 1   
    42   41   49 1   
    43   42   43 1   
    44   42   45 1   
    45   42   50 1   
    46   43   44 2   
    47   43   53 1   
    48   45   46 1   
    49   45   51 1   
    50   45   52 1   
    51   46   47 1   
    52   46   48 1   
    53   53   54 1   
    54   53   57 1   
    55   54   55 1   
    56   54   58 1   
    57   54   59 1   
    58   55   56 2   
    59   55   60 1   
    60   60   61 1   
    61   60   68 1   
    62   61   62 1   
    63   61   64 1   
    64   61   69 1   
    65   62   63 2   
    66   62   72 1   
    67   64   65 1   
    68   64   70 1   
    69   64   71 1   
    70   65   66 1   
    71   65   67 1   
    72   72   73 1   
    73   72   76 1   
    74   73   74 1   
    75   73   77 1   
    76   73   78 1   
    77   74   75 2   
    78   74   79 1   
    79   79   80 1   
    80   79   86 1   
    81   80   81 1   
    82   80   83 1   
    83   80   87 1   
    84   81   82 2   
    85   81   93 1   
    86   83   84 1   
    87   83   85 1   
    88   83   88 1   
    89   84   90 1   
    90   84   91 1   
    91   84   92 1   
    92   85   89 1   
    93   93   94 1   
    94   93  101 1   
    95   94   95 1   
    96   94   97 1   
    97   94  102 1   
    98   95   96 2   
    99   95  112 1   
   100   97   98 1   
   101   97   99 1   
   102   97  103 1   
   103   98  100 1   
   104   98  104 1   
   105   98  105 1   
   106   99  106 1   
   107   99  107 1   
   108   99  108 1   
   109  100  109 1   
   110  100  110 1   
   111  100  111 1   
   112  112  113 1   
   113  112  119 1   
   114  113  114 1   
   115  113  116 1   
   116  113  120 1   
   117  114  115 2   
   118  114  126 1   
   119  116  117 1   
   120  116  118 1   
   121  116  121 1   
   122  117  123 1   
   123  117  124 1   
   124  117  125 1   
   125  118  122 1   
   126  126  127 1   
   127  126  133 1   
   128  127  128 1   
   129  127  130 1   
   130  127  134 1   
   131  128  129 2   
   132  128  140 1   
   133  130  131 1   
   134  130  132 1   
   135  130  135 1   
   136  131  137 1   
   137  131  138 1   
   138  131  139 1   
   139  132  136 1   
   140  140  141 1   
   141  140  149 1   
   142  141  142 1   
   143  141  144 1   
   144  141  150 1   
   145  142  143 2   
   146  142  162 1   
   147  144  145 1   
   148  144  151 1   
   149  144  152 1   
   150  145  146 1   
   151  145  153 1   
   152  145  154 1   
   153  146  147 1   
   154  146  155 1   
   155  146  156 1   
   156  147  148 1   
   157  147  157 1   
   158  147  158 1   
   159  148  159 1   
   160  148  160 1   
   161  148  161 1   
   162  162  163 1   
   163  162  171 1   
   164  163  164 1   
   165  163  166 1   
   166  163  172 1   
   167  164  165 2   
   168  164  177 1   
   169  166  167 1   
   170  166  173 1   
   171  166  174 1   
   172  167  168 1   
   173  167  175 1   
   174  167  176 1   
   175  168  169 1   
   176  168  170 1   
   177  177  178 1   
   178  177  182 1   
   179  178  179 1   
   180  178  180 1   
   181  178  181 1   
   182  184  185 1   
   183  184  186 1   
   184  187  188 1   
   185  187  189 1   
@<TRIPOS>SUBSTRUCTURE
     1 MOL         1 TEMP              0 ****  ****    0 ROOT
