@<TRIPOS>MOLECULE
MOL
  179   176     1     0     0
SMALL
resp


@<TRIPOS>ATOM
      1 C1          1.0330    3.5280    6.1500 c3        1 MOL     -0.388884
      2 C2          0.7900    3.2010    4.6980 c         1 MOL      0.781777
      3 O1          1.7520    3.1570    3.9510 o         1 MOL     -0.617570
      4 H1          0.6090    4.5070    6.3770 hc        1 MOL      0.099288
      5 H2          0.5590    2.7720    6.7770 hc        1 MOL      0.099288
      6 H3          2.1040    3.5420    6.3460 hc        1 MOL      0.099288
      7 N1         -0.4450    2.9000    4.2900 n         1 MOL     -0.680254
      8 C3         -0.9640    2.5690    2.9610 c3        1 MOL      0.125404
      9 C4         -1.0620    3.8810    2.2270 c         1 MOL      0.662265
     10 O2         -1.8460    4.7450    2.4990 o         1 MOL     -0.548804
     11 C5         -2.3310    1.9080    3.0330 c3        1 MOL     -0.289390
     12 C6         -2.8780    1.3890    1.7200 c         1 MOL      0.690871
     13 O3         -2.3540    1.5810    0.6060 o         1 MOL     -0.679102
     14 O4         -3.9720    0.7720    1.7590 o         1 MOL     -0.679102
     15 H4         -1.0350    2.7230    5.1000 hn        1 MOL      0.326281
     16 H5         -0.3540    1.8710    2.3820 h1        1 MOL      0.091545
     17 H6         -2.9460    2.7590    3.3470 hc        1 MOL      0.095930
     18 H7         -2.3750    1.1040    3.7590 hc        1 MOL      0.095930
     19 N2         -0.1010    4.0160    1.3370 n         1 MOL     -0.345071
     20 C7          0.1940    5.1920    0.5340 c3        1 MOL     -0.061138
     21 C8         -0.9870    5.7100   -0.2970 c         1 MOL      0.474217
     22 O5         -1.0090    6.9420   -0.6780 o         1 MOL     -0.585146
     23 C9          1.3600    4.8050   -0.3950 c3        1 MOL      0.017909
     24 C10         1.9860    5.8690   -1.2500 c3        1 MOL     -0.122366
     25 C11         3.3910    5.5360   -1.7690 c3        1 MOL     -0.060966
     26 C12         4.0000    6.7670   -2.4390 c3        1 MOL      0.150209
     27 N3          5.3900    6.4350   -2.8740 n4        1 MOL     -0.478535
     28 H8          0.3130    3.1180    1.1410 hn        1 MOL      0.222370
     29 H9          0.5460    6.0270    1.1520 h1        1 MOL      0.103597
     30 H10         1.1260    3.9630   -1.0470 hc        1 MOL      0.096473
     31 H11         2.1360    4.5230    0.3190 hc        1 MOL      0.096473
     32 H12         1.9610    6.8420   -0.7590 hc        1 MOL      0.042969
     33 H13         1.4350    6.0340   -2.1730 hc        1 MOL      0.042969
     34 H14         3.3990    4.6830   -2.4410 hc        1 MOL      0.038117
     35 H15         4.0710    5.3430   -0.9390 hc        1 MOL      0.038117
     36 H16         4.0370    7.5950   -1.7240 hx        1 MOL      0.066042
     37 H17         3.4220    7.0960   -3.2950 hx        1 MOL      0.066042
     38 H18         5.2810    5.5600   -3.3630 hn        1 MOL      0.355727
     39 H19         5.8250    7.1660   -3.4220 hn        1 MOL      0.355727
     40 H20         5.8880    6.2830   -2.0130 hn        1 MOL      0.355727
     41 N4         -1.9520    4.8180   -0.6280 n         1 MOL      0.004102
     42 C13        -3.1660    5.1070   -1.3920 c3        1 MOL      0.032049
     43 C14        -4.4100    4.6210   -0.8370 c         1 MOL      0.388342
     44 O6         -5.5010    4.8750   -1.3260 o         1 MOL     -0.522501
     45 C15        -3.0080    4.4580   -2.7590 c3        1 MOL     -0.300093
     46 C16        -2.5610    3.0040   -2.5990 c         1 MOL      0.749353
     47 O7         -3.4030    2.0770   -2.6550 o         1 MOL     -0.684810
     48 O8         -1.4120    2.7030   -2.4200 o         1 MOL     -0.684810
     49 H21        -1.7680    3.8610   -0.3710 hn        1 MOL     -0.204964
     50 H22        -3.2910    6.1860   -1.4370 h1        1 MOL      0.116106
     51 H23        -2.1280    4.9740   -3.1560 hc        1 MOL      0.084471
     52 H24        -3.8570    4.5780   -3.4220 hc        1 MOL      0.084471
     53 N5         -4.3330    3.8160    0.2420 n         1 MOL     -0.086280
     54 C17        -5.4560    3.2650    1.0150 c3        1 MOL     -0.025040
     55 C18        -6.4110    2.2740    0.3040 c         1 MOL      0.436810
     56 O9         -7.5490    2.0010    0.7480 o         1 MOL     -0.560945
     57 H25        -3.3960    3.5800    0.5390 hn        1 MOL      0.016978
     58 H26        -6.0700    4.1070    1.3490 h1        1 MOL      0.067015
     59 H27        -5.1200    2.8250    1.9510 h1        1 MOL      0.067015
     60 N6         -5.8790    1.5080   -0.6920 n         1 MOL     -0.234194
     61 C19        -6.6900    0.4210   -1.2530 c3        1 MOL      0.078811
     62 C20        -6.8090   -0.7440   -0.3080 c         1 MOL      0.224741
     63 O10        -7.5680   -1.6480   -0.6160 o         1 MOL     -0.471519
     64 C21        -6.1050    0.0150   -2.6150 c3        1 MOL     -0.318484
     65 C22        -4.9650   -0.9190   -2.5180 c         1 MOL      0.857779
     66 N7         -5.0790   -1.9780   -3.2760 n         1 MOL     -0.740917
     67 O11        -3.9350   -0.6420   -1.8850 o         1 MOL     -0.818122
     68 H28        -4.9670    1.6900   -1.0880 hn        1 MOL      0.214934
     69 H29        -7.7070    0.7530   -1.4820 h1        1 MOL      0.112474
     70 H30        -5.7450    0.8750   -3.1830 hc        1 MOL      0.100722
     71 H31        -6.9750   -0.4600   -3.0700 hc        1 MOL      0.100722
     72 H32        -5.8390   -2.2950   -3.8710 hn        1 MOL      0.351301
     73 H33        -4.2250   -2.5060   -3.3830 hn        1 MOL      0.351301
     74 N8         -6.2080   -0.7450    0.8610 n         1 MOL      0.008635
     75 C23        -6.2120   -1.7820    1.8750 c3        1 MOL     -0.297512
     76 C24        -4.9760   -2.7370    1.9570 c         1 MOL      0.573671
     77 O12        -5.0360   -3.7500    2.6390 o         1 MOL     -0.558536
     78 H34        -5.7390    0.1020    1.1360 hn        1 MOL      0.246272
     79 H35        -7.1070   -2.4040    1.7880 h1        1 MOL      0.122496
     80 H36        -6.1840   -1.1880    2.7890 h1        1 MOL      0.122496
     81 N9         -3.9350   -2.4470    1.1640 n         1 MOL     -0.157810
     82 C25        -2.7580   -3.3230    0.9440 c3        1 MOL      0.140938
     83 C26        -1.3990   -2.5370    0.9450 c         1 MOL      0.183406
     84 O13        -1.3270   -1.3680    0.6260 o         1 MOL     -0.429769
     85 C27        -2.8960   -3.9590   -0.4370 c3        1 MOL      0.124858
     86 C28        -4.0200   -4.9680   -0.4980 ca        1 MOL      0.087620
     87 C29        -5.3940   -4.5920   -0.6860 ca        1 MOL     -0.319255
     88 C30        -3.6990   -6.3550   -0.5020 ca        1 MOL     -0.319255
     89 C31        -6.4530   -5.5430   -0.6230 ca        1 MOL     -0.050603
     90 C32        -4.7450   -7.3130   -0.5600 ca        1 MOL     -0.050603
     91 C33        -6.0990   -6.9230   -0.6570 ca        1 MOL      0.152860
     92 O14        -7.0580   -7.8550   -0.7610 oh        1 MOL     -0.430309
     93 H37        -3.8560   -1.4860    0.8670 hn        1 MOL      0.080331
     94 H38        -2.8150   -4.0960    1.7090 h1        1 MOL      0.033562
     95 H39        -1.9790   -4.4580   -0.7230 hc        1 MOL     -0.014758
     96 H40        -2.9060   -3.2430   -1.2480 hc        1 MOL     -0.014758
     97 H41        -5.6620   -3.5550   -0.8370 ha        1 MOL      0.132038
     98 H42        -2.6600   -6.6600   -0.5380 ha        1 MOL      0.132038
     99 H43        -7.4780   -5.2580   -0.7580 ha        1 MOL      0.099752
    100 H44        -4.5530   -8.3770   -0.4720 ha        1 MOL      0.099752
    101 H45        -6.7780   -8.7700   -0.7790 ho        1 MOL      0.340404
    102 N10        -0.3160   -3.2580    1.2940 n         1 MOL     -0.291136
    103 C34         1.0460   -2.7340    1.1050 c3        1 MOL     -0.185418
    104 C35         1.8650   -3.6240    0.2950 c         1 MOL      0.390135
    105 O15         1.7910   -4.8740    0.4390 o         1 MOL     -0.537576
    106 C36         1.6460   -2.2200    2.3820 c3        1 MOL      0.053110
    107 C37         2.1490   -3.2810    3.4550 c3        1 MOL     -0.172480
    108 C38         0.8280   -1.0140    2.8470 c3        1 MOL     -0.374427
    109 C39         2.8180   -2.8320    4.7260 c3        1 MOL     -0.141382
    110 H46        -0.5070   -4.1850    1.6360 hn        1 MOL      0.281675
    111 H47         0.9230   -1.8060    0.5470 h1        1 MOL      0.307855
    112 H48         2.5630   -1.7200    2.0620 hc        1 MOL      0.015823
    113 H49         2.8840   -3.9320    2.9760 hc        1 MOL      0.093131
    114 H50         1.2740   -3.8530    3.7450 hc        1 MOL      0.093131
    115 H51         1.4170   -0.5460    3.6510 hc        1 MOL      0.124704
    116 H52         0.5810   -0.2620    2.1000 hc        1 MOL      0.124704
    117 H53        -0.0380   -1.3650    3.3960 hc        1 MOL      0.124704
    118 H54         2.2520   -2.2070    5.4120 hc        1 MOL      0.043993
    119 H55         3.0620   -3.7630    5.2420 hc        1 MOL      0.043993
    120 H56         3.7590   -2.4130    4.3550 hc        1 MOL      0.043993
    121 N11         2.6500   -3.0540   -0.5960 n         1 MOL     -0.072264
    122 C40         3.7520   -3.6810   -1.2590 c3        1 MOL      0.004077
    123 C41         5.0650   -3.5550   -0.5620 c         1 MOL      0.520490
    124 O16         5.2360   -2.7330    0.3520 o         1 MOL     -0.404303
    125 C42         3.9600   -3.1320   -2.7400 c3        1 MOL     -0.252736
    126 O17         4.1810   -1.7280   -2.6820 oh        1 MOL     -0.371892
    127 H57         2.4980   -2.0680   -0.7510 hn        1 MOL      0.091135
    128 H58         3.5540   -4.7520   -1.2850 h1        1 MOL      0.065186
    129 H59         2.9920   -3.2460   -3.2370 h1        1 MOL      0.121580
    130 H60         4.7370   -3.5930   -3.3530 h1        1 MOL      0.121580
    131 H61         4.3220   -1.4300   -3.5750 ho        1 MOL      0.357077
    132 N12         6.1090   -4.2170   -1.0340 n         1 MOL     -0.435963
    133 C43         7.4230   -4.0330   -0.5330 c3        1 MOL      0.179834
    134 C44         8.0090   -2.5550   -0.6750 c         1 MOL      0.351004
    135 O18         8.7370   -2.1030    0.1910 o         1 MOL     -0.491228
    136 C45         8.4220   -5.0160   -1.1660 c3        1 MOL     -0.278058
    137 H62         6.0610   -4.8530   -1.8130 hn        1 MOL      0.271456
    138 H63         7.4380   -4.2940    0.5260 h1        1 MOL      0.067200
    139 H64         9.3190   -5.0750   -0.5650 hc        1 MOL      0.090227
    140 H65         7.9450   -5.9950   -1.1150 hc        1 MOL      0.090227
    141 H66         8.6760   -4.6620   -2.1640 hc        1 MOL      0.090227
    142 N13         7.8190   -1.8140   -1.7650 n         1 MOL     -0.240176
    143 C46         8.1980   -0.4440   -1.9030 c3        1 MOL      0.061806
    144 C47         7.3460    0.5530   -0.9910 c         1 MOL      0.368427
    145 O19         7.7920    1.6720   -0.6230 o         1 MOL     -0.525497
    146 C48         7.8450   -0.0710   -3.3890 c3        1 MOL     -0.324923
    147 H67         7.2250   -2.1810   -2.4920 hn        1 MOL      0.220796
    148 H68         9.2570   -0.3010   -1.6770 h1        1 MOL      0.118426
    149 H69         8.3960    0.8290   -3.6520 hc        1 MOL      0.084621
    150 H70         8.0420   -0.9210   -4.0400 hc        1 MOL      0.084621
    151 H71         6.7870    0.1890   -3.4780 hc        1 MOL      0.084621
    152 N14         6.1820    0.0750   -0.5150 n         1 MOL     -0.000220
    153 C49         5.4230    0.7830    0.5280 c3        1 MOL     -0.049414
    154 C50         5.9740    0.4370    1.9210 c         1 MOL      0.502130
    155 O20         6.2240    1.3770    2.7270 o         1 MOL     -0.554740
    156 C51         3.9420    0.4750    0.4260 c3        1 MOL      0.258809
    157 C52         3.1780    1.2480   -0.6370 c3        1 MOL     -0.371053
    158 C53         1.7000    0.8820   -0.5200 c         1 MOL      0.997437
    159 O21         0.7230    1.6000   -0.1830 o         1 MOL     -0.843795
    160 O22         1.3670   -0.2650   -0.9990 o         1 MOL     -0.843795
    161 H72         5.7830   -0.8090   -0.8080 hn        1 MOL     -0.057981
    162 H73         5.4790    1.8600    0.3860 h1        1 MOL      0.042377
    163 H74         3.4460    0.8070    1.3450 hc        1 MOL     -0.029365
    164 H75         3.8000   -0.5900    0.2550 hc        1 MOL     -0.029365
    165 H76         3.5380    0.9960   -1.6400 hc        1 MOL      0.024994
    166 H77         3.3380    2.3020   -0.3940 hc        1 MOL      0.024994
    167 N15         6.1530   -0.8300    2.2170 n         1 MOL     -0.242915
    168 C54         6.7360   -1.3980    3.4690 c3        1 MOL     -0.275399
    169 H78         5.9660   -1.4430    4.2390 h1        1 MOL      0.120930
    170 H79         7.1120   -2.4020    3.2730 h1        1 MOL      0.120930
    171 H80         7.5540   -0.7630    3.8100 h1        1 MOL      0.120930
    172 H81         5.7190   -1.4640    1.5670 hn        1 MOL      0.230743
    173 Ca1        -1.4590    0.3610   -1.3820 Ca        1 MOL      1.836592
    174 O23        -0.3780   -2.0280   -2.3260 oh        1 MOL     -0.829841
    175 H82         0.4550   -1.6150   -2.1320 ho        1 MOL      0.402936
    176 H83        -0.1470   -2.8480   -2.7720 ho        1 MOL      0.402936
    177 O24        -0.3940    0.2870   -3.8610 oh        1 MOL     -0.829841
    178 H84         0.5640    0.2510   -3.9060 ho        1 MOL      0.402936
    179 H85        -0.6790   -0.0220   -4.7260 ho        1 MOL      0.402936
@<TRIPOS>BOND
     1    1    2 1   
     2    1    4 1   
     3    1    5 1   
     4    1    6 1   
     5    2    3 2   
     6    2    7 1   
     7    7    8 1   
     8    7   15 1   
     9    8    9 1   
    10    8   11 1   
    11    8   16 1   
    12    9   10 2   
    13    9   19 1   
    14   11   12 1   
    15   11   17 1   
    16   11   18 1   
    17   12   13 1   
    18   12   14 1   
    19   19   20 1   
    20   19   28 1   
    21   20   21 1   
    22   20   23 1   
    23   20   29 1   
    24   21   22 2   
    25   21   41 1   
    26   23   24 1   
    27   23   30 1   
    28   23   31 1   
    29   24   25 1   
    30   24   32 1   
    31   24   33 1   
    32   25   26 1   
    33   25   34 1   
    34   25   35 1   
    35   26   27 1   
    36   26   36 1   
    37   26   37 1   
    38   27   38 1   
    39   27   39 1   
    40   27   40 1   
    41   41   42 1   
    42   41   49 1   
    43   42   43 1   
    44   42   45 1   
    45   42   50 1   
    46   43   44 2   
    47   43   53 1   
    48   45   46 1   
    49   45   51 1   
    50   45   52 1   
    51   46   47 1   
    52   46   48 1   
    53   53   54 1   
    54   53   57 1   
    55   54   55 1   
    56   54   58 1   
    57   54   59 1   
    58   55   56 2   
    59   55   60 1   
    60   60   61 1   
    61   60   68 1   
    62   61   62 1   
    63   61   64 1   
    64   61   69 1   
    65   62   63 2   
    66   62   74 1   
    67   64   65 1   
    68   64   70 1   
    69   64   71 1   
    70   65   66 1   
    71   65   67 2   
    72   66   72 1   
    73   66   73 1   
    74   74   75 1   
    75   74   78 1   
    76   75   76 1   
    77   75   79 1   
    78   75   80 1   
    79   76   77 2   
    80   76   81 1   
    81   81   82 1   
    82   81   93 1   
    83   82   83 1   
    84   82   85 1   
    85   82   94 1   
    86   83   84 2   
    87   83  102 1   
    88   85   86 1   
    89   85   95 1   
    90   85   96 1   
    91   86   87 ar  
    92   86   88 ar  
    93   87   89 ar  
    94   87   97 1   
    95   88   90 ar  
    96   88   98 1   
    97   89   91 ar  
    98   89   99 1   
    99   90   91 ar  
   100   90  100 1   
   101   91   92 1   
   102   92  101 1   
   103  102  103 1   
   104  102  110 1   
   105  103  104 1   
   106  103  106 1   
   107  103  111 1   
   108  104  105 2   
   109  104  121 1   
   110  106  107 1   
   111  106  108 1   
   112  106  112 1   
   113  107  109 1   
   114  107  113 1   
   115  107  114 1   
   116  108  115 1   
   117  108  116 1   
   118  108  117 1   
   119  109  118 1   
   120  109  119 1   
   121  109  120 1   
   122  121  122 1   
   123  121  127 1   
   124  122  123 1   
   125  122  125 1   
   126  122  128 1   
   127  123  124 2   
   128  123  132 1   
   129  125  126 1   
   130  125  129 1   
   131  125  130 1   
   132  126  131 1   
   133  132  133 1   
   134  132  137 1   
   135  133  134 1   
   136  133  136 1   
   137  133  138 1   
   138  134  135 2   
   139  134  142 1   
   140  136  139 1   
   141  136  140 1   
   142  136  141 1   
   143  142  143 1   
   144  142  147 1   
   145  143  144 1   
   146  143  146 1   
   147  143  148 1   
   148  144  145 2   
   149  144  152 1   
   150  146  149 1   
   151  146  150 1   
   152  146  151 1   
   153  152  153 1   
   154  152  161 1   
   155  153  154 1   
   156  153  156 1   
   157  153  162 1   
   158  154  155 2   
   159  154  167 1   
   160  156  157 1   
   161  156  163 1   
   162  156  164 1   
   163  157  158 1   
   164  157  165 1   
   165  157  166 1   
   166  158  159 1   
   167  158  160 1   
   168  167  168 1   
   169  167  172 1   
   170  168  169 1   
   171  168  170 1   
   172  168  171 1   
   173  174  175 1   
   174  174  176 1   
   175  177  178 1   
   176  177  179 1   
@<TRIPOS>SUBSTRUCTURE
     1 MOL         1 TEMP              0 ****  ****    0 ROOT
