@<TRIPOS>MOLECULE
MOL
  172   171     1     0     0
SMALL
resp


@<TRIPOS>ATOM
      1 C1          0.0370    4.0950    5.2730 c3        1 MOL     -0.294370
      2 C2         -0.6790    4.1770    3.9610 c         1 MOL      0.662450
      3 O1         -0.0980    4.7500    2.9900 o         1 MOL     -0.567264
      4 H1          0.4510    3.0940    5.3990 hc        1 MOL      0.069321
      5 H2          0.8440    4.8270    5.2930 hc        1 MOL      0.069321
      6 H3         -0.6630    4.3030    6.0830 hc        1 MOL      0.069321
      7 N1         -1.8720    3.6200    3.7640 n         1 MOL     -0.503919
      8 C3         -2.5790    3.4340    2.5130 c3        1 MOL      0.022046
      9 C4         -2.8370    4.7750    1.8340 c         1 MOL      0.640147
     10 O2         -3.1240    5.8080    2.4800 o         1 MOL     -0.574089
     11 C5         -3.9490    2.7510    2.9680 c3        1 MOL     -0.190490
     12 C6         -4.7260    2.3040    1.7660 c         1 MOL      0.739058
     13 O3         -5.9480    2.1200    1.8860 o         1 MOL     -0.693203
     14 O4         -4.2060    2.1270    0.6480 o         1 MOL     -0.693203
     15 H4         -2.3330    3.1960    4.5640 hn        1 MOL      0.277482
     16 H5         -2.0780    2.7210    1.8620 h1        1 MOL      0.094023
     17 H6         -4.5950    3.4500    3.5000 hc        1 MOL      0.024087
     18 H7         -3.7830    1.8410    3.5530 hc        1 MOL      0.024087
     19 N2         -2.8680    4.6930    0.5070 n         1 MOL     -0.557304
     20 C7         -3.5810    5.6630   -0.2710 c3        1 MOL      0.367726
     21 C8         -4.2440    5.0410   -1.5810 c         1 MOL      0.468727
     22 O5         -4.3790    5.7180   -2.5660 o         1 MOL     -0.556322
     23 C9         -2.5680    6.7700   -0.6820 c3        1 MOL     -0.416544
     24 H8         -2.7950    3.7950    0.0540 hn        1 MOL      0.354656
     25 H9         -4.3600    6.0990    0.3490 h1        1 MOL     -0.006863
     26 H10        -1.9670    6.5190   -1.5600 hc        1 MOL      0.096939
     27 H11        -3.1070    7.6810   -0.9320 hc        1 MOL      0.096939
     28 H12        -1.8390    6.8720    0.1130 hc        1 MOL      0.096939
     29 N3         -4.7020    3.8100   -1.5120 n         1 MOL     -0.463335
     30 C10        -5.2730    3.1720   -2.7060 c3        1 MOL      0.086994
     31 C11        -6.4250    2.3320   -2.3730 c         1 MOL      0.526998
     32 O6         -7.2290    2.1750   -3.2760 o         1 MOL     -0.594687
     33 C12        -4.0980    2.3840   -3.4400 c3        1 MOL     -0.008049
     34 C13        -3.4160    1.3540   -2.5140 c         1 MOL      0.678140
     35 O7         -2.1950    1.3350   -2.4690 o         1 MOL     -0.703056
     36 O8         -4.0890    0.4820   -1.8310 o         1 MOL     -0.703056
     37 H13        -4.5540    3.3800   -0.6180 hn        1 MOL      0.194929
     38 H14        -5.5270    3.9160   -3.4510 h1        1 MOL      0.066496
     39 H15        -3.3750    3.0600   -3.9070 hc        1 MOL      0.012686
     40 H16        -4.5450    1.8340   -4.2630 hc        1 MOL      0.012686
     41 N4         -6.5990    1.8960   -1.1490 n         1 MOL     -0.316391
     42 C14        -7.6620    1.0000   -0.6910 c3        1 MOL     -0.151061
     43 C15        -7.6020   -0.5070   -1.1050 c         1 MOL      0.426530
     44 O9         -8.5730   -1.2020   -1.0720 o         1 MOL     -0.588407
     45 H17        -5.8200    1.9390   -0.5050 hn        1 MOL      0.249446
     46 H18        -8.6260    1.3970   -1.0260 h1        1 MOL      0.115240
     47 H19        -7.6810    0.9280    0.3940 h1        1 MOL      0.115240
     48 N5         -6.4910   -1.0660   -1.5460 n         1 MOL     -0.043498
     49 C16        -6.3410   -2.4510   -2.0810 c3        1 MOL     -0.117187
     50 C17        -6.3210   -3.5370   -0.9460 c         1 MOL      0.466373
     51 O10        -6.6720   -4.6940   -1.2450 o         1 MOL     -0.535945
     52 C18        -5.0330   -2.3630   -2.8820 c3        1 MOL      0.035999
     53 C19        -3.7050   -2.3690   -2.1500 c         1 MOL      0.535456
     54 N6         -2.6160   -2.4350   -2.9410 n         1 MOL     -0.708428
     55 O11        -3.5860   -2.2220   -0.9260 o         1 MOL     -0.587086
     56 H20        -5.7050   -0.4310   -1.5640 hn        1 MOL      0.048440
     57 H21        -7.1400   -2.6690   -2.7970 h1        1 MOL      0.115256
     58 H22        -5.1070   -1.4660   -3.4990 hc        1 MOL      0.018801
     59 H23        -5.0320   -3.1580   -3.6340 hc        1 MOL      0.018801
     60 H24        -2.7370   -2.6240   -3.9310 hn        1 MOL      0.347066
     61 H25        -1.6960   -2.2120   -2.6040 hn        1 MOL      0.347066
     62 N7         -5.8800   -3.2020    0.2930 n         1 MOL     -0.157249
     63 C20        -5.8830   -4.0610    1.4540 c3        1 MOL     -0.242477
     64 C21        -4.6120   -4.8510    1.6530 c         1 MOL      0.607188
     65 O12        -4.5520   -5.8720    2.2920 o         1 MOL     -0.587539
     66 H26        -5.4940   -2.2650    0.3260 hn        1 MOL      0.169354
     67 H27        -6.6710   -4.8200    1.4640 h1        1 MOL      0.101415
     68 H28        -6.0470   -3.3810    2.2920 h1        1 MOL      0.101415
     69 N8         -3.5440   -4.2640    1.1890 n         1 MOL     -0.204423
     70 C22        -2.1390   -4.6840    1.4460 c3        1 MOL     -0.396218
     71 C23        -1.1490   -3.5950    1.5360 c         1 MOL      0.644502
     72 O13        -1.4600   -2.5570    0.8790 o         1 MOL     -0.601914
     73 C24        -1.6140   -5.5930    0.2570 c3        1 MOL      0.449005
     74 C25        -2.3140   -6.9730    0.0720 c3        1 MOL     -0.350396
     75 O14        -1.7770   -5.0140   -1.0240 oh        1 MOL     -0.577656
     76 H29        -3.6520   -3.4390    0.6180 hn        1 MOL      0.197673
     77 H30        -2.1450   -5.2620    2.3710 h1        1 MOL      0.152014
     78 H31        -0.5400   -5.7550    0.3680 h1        1 MOL     -0.013716
     79 H32        -1.5650   -4.0870   -0.8890 ho        1 MOL      0.384245
     80 H33        -2.9440   -7.2640    0.9220 hc        1 MOL      0.091439
     81 H34        -2.9140   -6.9790   -0.8400 hc        1 MOL      0.091439
     82 H35        -1.6510   -7.8340   -0.0510 hc        1 MOL      0.091439
     83 N9          0.0090   -3.7670    2.1840 n         1 MOL     -0.579529
     84 C26         1.1270   -2.9000    2.0010 c3        1 MOL      0.016314
     85 C27         1.7580   -3.0510    0.6330 c         1 MOL      0.373091
     86 O15         1.8570   -4.1510    0.1370 o         1 MOL     -0.537301
     87 C28         2.1910   -3.1690    3.1120 c3        1 MOL      0.138486
     88 C29         1.4580   -3.2400    4.5280 c3        1 MOL      0.008864
     89 C30         3.2950   -2.1570    3.1670 c3        1 MOL     -0.139200
     90 C31         2.4000   -3.4630    5.7800 c3        1 MOL     -0.114452
     91 H36         0.2390   -4.6650    2.5790 hn        1 MOL      0.325231
     92 H37         0.8220   -1.8620    2.1060 h1        1 MOL      0.133203
     93 H38         2.6100   -4.1530    2.9470 hc        1 MOL     -0.007495
     94 H39         0.7110   -4.0400    4.5330 hc        1 MOL     -0.005053
     95 H40         0.8780   -2.3140    4.6010 hc        1 MOL     -0.005053
     96 H41         3.9480   -2.3380    4.0140 hc        1 MOL      0.008471
     97 H42         3.9470   -2.2210    2.3010 hc        1 MOL      0.008471
     98 H43         2.9620   -1.1160    3.1090 hc        1 MOL      0.008471
     99 H44         2.9210   -4.4060    5.6060 hc        1 MOL      0.029579
    100 H45         3.1380   -2.6780    5.8440 hc        1 MOL      0.029579
    101 H46         1.8480   -3.5850    6.7200 hc        1 MOL      0.029579
    102 N10         2.1890   -1.9570   -0.0010 n         1 MOL     -0.055958
    103 C32         2.8860   -1.8930   -1.2450 c3        1 MOL      0.013911
    104 C33         4.2880   -1.3960   -0.9430 c         1 MOL      0.278703
    105 O16         4.5360   -0.8410    0.0990 o         1 MOL     -0.239619
    106 C34         2.1070   -0.9800   -2.2380 c3        1 MOL     -0.180495
    107 C35         0.7280   -1.5710   -2.5600 c         1 MOL      0.688510
    108 O17        -0.2520   -1.2790   -1.8110 o         1 MOL     -0.662642
    109 O18         0.5530   -2.2060   -3.6050 o         1 MOL     -0.662642
    110 H47         1.9730   -1.1030    0.4920 hn        1 MOL      0.193506
    111 H48         2.8360   -2.9000   -1.6600 h1        1 MOL      0.063303
    112 H49         2.6770   -0.8230   -3.1530 hc        1 MOL      0.046450
    113 H50         1.9620   -0.0020   -1.7820 hc        1 MOL      0.046450
    114 N11         5.2570   -1.5100   -1.8610 n         1 MOL     -0.520083
    115 C36         6.6220   -1.1160   -1.5080 c3        1 MOL      0.315170
    116 C37         6.8550    0.3600   -1.1460 c         1 MOL      0.407022
    117 O19         7.5290    0.6290   -0.1770 o         1 MOL     -0.515637
    118 C38         7.5790   -1.5680   -2.5730 c3        1 MOL     -0.272248
    119 C39         9.0830   -1.3530   -2.2410 ca        1 MOL      0.195181
    120 C40         9.7620   -0.2210   -2.8050 ca        1 MOL     -0.292491
    121 C41         9.7360   -2.2620   -1.3820 ca        1 MOL     -0.292491
    122 C42        11.0880   -0.0090   -2.4810 ca        1 MOL      0.038081
    123 C43        11.0430   -1.8900   -0.9360 ca        1 MOL      0.038081
    124 C44        11.7290   -0.8440   -1.5230 ca        1 MOL     -0.270628
    125 H51         5.0570   -1.9940   -2.7250 hn        1 MOL      0.317643
    126 H52         6.9440   -1.6430   -0.6080 h1        1 MOL      0.033005
    127 H53         7.3150   -1.0560   -3.4960 hc        1 MOL      0.071647
    128 H54         7.4810   -2.6150   -2.8640 hc        1 MOL      0.071647
    129 H55         9.2080    0.4250   -3.4650 ha        1 MOL      0.153344
    130 H56         9.2310   -3.1780   -1.1020 ha        1 MOL      0.153344
    131 H57        11.6630    0.8150   -2.8670 ha        1 MOL      0.079198
    132 H58        11.5620   -2.5400   -0.2510 ha        1 MOL      0.079198
    133 H59        12.6570   -0.4650   -1.1070 ha        1 MOL      0.139212
    134 N12         6.1310    1.3780   -1.6830 n         1 MOL      0.007869
    135 C45         6.2450    2.8000   -1.4150 c3        1 MOL     -0.051809
    136 C46         5.6390    3.1240   -0.0600 c         1 MOL      0.331349
    137 O20         6.1260    4.0940    0.5290 o         1 MOL     -0.506120
    138 C47         5.5810    3.5960   -2.5330 c3        1 MOL     -0.067151
    139 C48         5.9020    2.6010   -3.6880 c3        1 MOL     -0.038047
    140 C49         5.4210    1.3360   -2.9810 c3        1 MOL     -0.190853
    141 H60         7.3190    2.9670   -1.3290 h1        1 MOL      0.087873
    142 H61         4.4980    3.6430   -2.4260 hc        1 MOL      0.073042
    143 H62         6.0780    4.5360   -2.7550 hc        1 MOL      0.073042
    144 H63         5.3470    2.9180   -4.5770 hc        1 MOL      0.027922
    145 H64         6.9570    2.3910   -3.8630 hc        1 MOL      0.027922
    146 H65         4.3330    1.2890   -2.9110 h1        1 MOL      0.082229
    147 H66         5.7540    0.4850   -3.5740 h1        1 MOL      0.082229
    148 N13         4.7340    2.2360    0.4730 n         1 MOL     -0.138975
    149 C50         4.0230    2.3260    1.7730 c3        1 MOL     -0.065764
    150 C51         4.7550    1.5500    2.8690 c         1 MOL      0.407813
    151 O21         4.7520    1.9680    4.0440 o         1 MOL     -0.582077
    152 C52         2.6120    1.7420    1.7550 c3        1 MOL      0.059045
    153 C53         1.6710    2.1830    0.6020 c3        1 MOL     -0.284603
    154 C54         0.3840    1.4640    0.4890 c         1 MOL      0.886375
    155 O22        -0.5980    1.9600   -0.0430 o         1 MOL     -0.832737
    156 O23         0.2550    0.3280    0.8900 o         1 MOL     -0.832737
    157 H67         4.5920    1.3880   -0.0570 hn        1 MOL      0.107211
    158 H68         3.9550    3.3840    2.0350 h1        1 MOL      0.102255
    159 H69         2.2020    2.0310    2.7200 hc        1 MOL      0.023438
    160 H70         2.7120    0.6550    1.7460 hc        1 MOL      0.023438
    161 H71         2.2950    2.1050   -0.2890 hc        1 MOL      0.085190
    162 H72         1.5010    3.2440    0.7980 hc        1 MOL      0.085190
    163 N14         5.5280    0.6300    2.4480 n         1 MOL      0.077683
    164 C55         6.5510    0.0520    3.2850 c3        1 MOL     -0.200754
    165 H73         6.5590   -1.0300    3.1510 h1        1 MOL      0.074112
    166 H74         7.5230    0.4590    3.0070 h1        1 MOL      0.074112
    167 H75         6.3430    0.2860    4.3290 h1        1 MOL      0.074112
    168 H76         5.4050    0.2230    1.5370 hn        1 MOL     -0.003089
    169 Ca1        -2.0340   -0.1920   -0.2350 Ca        1 MOL      1.727221
    170 O24        -2.3970   -0.1690    2.4910 oh        1 MOL     -0.708779
    171 H77        -3.2880   -0.5340    2.5540 ho        1 MOL      0.378102
    172 H78        -2.1590    0.0300    3.3940 ho        1 MOL      0.378102
@<TRIPOS>BOND
     1    1    2 1   
     2    1    4 1   
     3    1    5 1   
     4    1    6 1   
     5    2    3 2   
     6    2    7 1   
     7    7    8 1   
     8    7   15 1   
     9    8    9 1   
    10    8   11 1   
    11    8   16 1   
    12    9   10 2   
    13    9   19 1   
    14   11   12 1   
    15   11   17 1   
    16   11   18 1   
    17   12   13 1   
    18   12   14 1   
    19   19   20 1   
    20   19   24 1   
    21   20   21 1   
    22   20   23 1   
    23   20   25 1   
    24   21   22 2   
    25   21   29 1   
    26   23   26 1   
    27   23   27 1   
    28   23   28 1   
    29   29   30 1   
    30   29   37 1   
    31   30   31 1   
    32   30   33 1   
    33   30   38 1   
    34   31   32 2   
    35   31   41 1   
    36   33   34 1   
    37   33   39 1   
    38   33   40 1   
    39   34   35 1   
    40   34   36 1   
    41   41   42 1   
    42   41   45 1   
    43   42   43 1   
    44   42   46 1   
    45   42   47 1   
    46   43   44 2   
    47   43   48 1   
    48   48   49 1   
    49   48   56 1   
    50   49   50 1   
    51   49   52 1   
    52   49   57 1   
    53   50   51 2   
    54   50   62 1   
    55   52   53 1   
    56   52   58 1   
    57   52   59 1   
    58   53   54 1   
    59   53   55 2   
    60   54   60 1   
    61   54   61 1   
    62   62   63 1   
    63   62   66 1   
    64   63   64 1   
    65   63   67 1   
    66   63   68 1   
    67   64   65 2   
    68   64   69 1   
    69   69   70 1   
    70   69   76 1   
    71   70   71 1   
    72   70   73 1   
    73   70   77 1   
    74   71   72 2   
    75   71   83 1   
    76   73   74 1   
    77   73   75 1   
    78   73   78 1   
    79   74   80 1   
    80   74   81 1   
    81   74   82 1   
    82   75   79 1   
    83   83   84 1   
    84   83   91 1   
    85   84   85 1   
    86   84   87 1   
    87   84   92 1   
    88   85   86 2   
    89   85  102 1   
    90   87   88 1   
    91   87   89 1   
    92   87   93 1   
    93   88   90 1   
    94   88   94 1   
    95   88   95 1   
    96   89   96 1   
    97   89   97 1   
    98   89   98 1   
    99   90   99 1   
   100   90  100 1   
   101   90  101 1   
   102  102  103 1   
   103  102  110 1   
   104  103  104 1   
   105  103  106 1   
   106  103  111 1   
   107  104  105 2   
   108  104  114 1   
   109  106  107 1   
   110  106  112 1   
   111  106  113 1   
   112  107  108 1   
   113  107  109 1   
   114  114  115 1   
   115  114  125 1   
   116  115  116 1   
   117  115  118 1   
   118  115  126 1   
   119  116  117 2   
   120  116  134 1   
   121  118  119 1   
   122  118  127 1   
   123  118  128 1   
   124  119  120 ar  
   125  119  121 ar  
   126  120  122 ar  
   127  120  129 1   
   128  121  123 ar  
   129  121  130 1   
   130  122  124 ar  
   131  122  131 1   
   132  123  124 ar  
   133  123  132 1   
   134  124  133 1   
   135  134  135 1   
   136  134  140 1   
   137  135  136 1   
   138  135  138 1   
   139  135  141 1   
   140  136  137 2   
   141  136  148 1   
   142  138  139 1   
   143  138  142 1   
   144  138  143 1   
   145  139  140 1   
   146  139  144 1   
   147  139  145 1   
   148  140  146 1   
   149  140  147 1   
   150  148  149 1   
   151  148  157 1   
   152  149  150 1   
   153  149  152 1   
   154  149  158 1   
   155  150  151 2   
   156  150  163 1   
   157  152  153 1   
   158  152  159 1   
   159  152  160 1   
   160  153  154 1   
   161  153  161 1   
   162  153  162 1   
   163  154  155 1   
   164  154  156 1   
   165  163  164 1   
   166  163  168 1   
   167  164  165 1   
   168  164  166 1   
   169  164  167 1   
   170  170  171 1   
   171  170  172 1   
@<TRIPOS>SUBSTRUCTURE
     1 MOL         1 TEMP              0 ****  ****    0 ROOT
