@<TRIPOS>MOLECULE
MOL
  182   178     1     0     0
SMALL
resp


@<TRIPOS>ATOM
      1 C1         -1.0130   -3.4380    6.4260 c3        1 MOL     -0.342892
      2 C2         -0.7890   -3.1620    4.9040 c         1 MOL      0.720652
      3 O1         -1.7290   -3.2080    4.1290 o         1 MOL     -0.588753
      4 H1         -0.3980   -4.2830    6.7360 hc        1 MOL      0.091166
      5 H2         -0.7340   -2.5550    7.0020 hc        1 MOL      0.091166
      6 H3         -2.0630   -3.6710    6.6020 hc        1 MOL      0.091166
      7 N1          0.4470   -2.8050    4.4250 n         1 MOL     -0.563927
      8 C3          0.8890   -2.5230    3.0530 c3        1 MOL      0.048446
      9 C4          1.1390   -3.8380    2.2860 c         1 MOL      0.554486
     10 O2          1.5460   -4.8560    2.8550 o         1 MOL     -0.565442
     11 C5          2.0890   -1.5250    3.0960 c3        1 MOL     -0.123964
     12 C6          2.7500   -1.0520    1.7960 c         1 MOL      0.630687
     13 O3          2.2930   -1.3730    0.6470 o         1 MOL     -0.746171
     14 O4          3.7090   -0.3050    1.8730 o         1 MOL     -0.746171
     15 H4          1.2040   -2.7460    5.0920 hn        1 MOL      0.290679
     16 H5          0.1610   -2.0330    2.4040 h1        1 MOL      0.039307
     17 H6          2.8000   -1.9410    3.8020 hc        1 MOL      0.058805
     18 H7          1.7140   -0.6480    3.6300 hc        1 MOL      0.058805
     19 N2          0.6680   -3.8610    1.0470 n         1 MOL     -0.163880
     20 C7          0.4970   -5.1470    0.2780 c3        1 MOL     -0.069106
     21 C8          1.8340   -5.5090   -0.3610 c         1 MOL      0.389192
     22 O5          2.4300   -6.5460   -0.2290 o         1 MOL     -0.516244
     23 C9         -0.6700   -5.0730   -0.7380 c3        1 MOL     -0.092691
     24 C10        -1.9790   -5.0500    0.0200 c3        1 MOL      0.015486
     25 C11        -3.1590   -4.9860   -0.9630 c3        1 MOL     -0.062918
     26 C12        -3.4370   -6.3390   -1.6800 c3        1 MOL      0.062468
     27 N3         -4.8060   -6.2870   -2.2780 n4        1 MOL     -0.347749
     28 H8          0.2350   -3.0220    0.6910 hn        1 MOL      0.133060
     29 H9          0.1340   -5.8740    1.0080 h1        1 MOL      0.085647
     30 H10        -0.6390   -5.9320   -1.4070 hc        1 MOL      0.032584
     31 H11        -0.5230   -4.2310   -1.4150 hc        1 MOL      0.032584
     32 H12        -1.9790   -4.2120    0.7120 hc        1 MOL      0.055477
     33 H13        -2.1560   -5.9690    0.5910 hc        1 MOL      0.055477
     34 H14        -3.1000   -4.1510   -1.6610 hc        1 MOL      0.051490
     35 H15        -3.9660   -4.7480   -0.2600 hc        1 MOL      0.051490
     36 H16        -3.4080   -7.1610   -0.9720 hx        1 MOL      0.073299
     37 H17        -2.6340   -6.5550   -2.3800 hx        1 MOL      0.073299
     38 H18        -4.9540   -7.1590   -2.7650 hn        1 MOL      0.323537
     39 H19        -5.4250   -6.3500   -1.4880 hn        1 MOL      0.323537
     40 H20        -5.1070   -5.5060   -2.8500 hn        1 MOL      0.323537
     41 N4          2.2850   -4.5800   -1.1520 n         1 MOL     -0.254353
     42 C13         3.5430   -4.8070   -1.8100 c3        1 MOL      0.016759
     43 C14         4.7010   -4.3890   -0.9120 c         1 MOL      0.423692
     44 O6          5.8780   -4.7000   -1.1530 o         1 MOL     -0.546985
     45 C15         3.6280   -4.1510   -3.2030 c3        1 MOL     -0.212117
     46 C16         3.5570   -2.6510   -3.1770 c         1 MOL      0.796201
     47 O7          3.2570   -2.0990   -2.1130 o         1 MOL     -0.750847
     48 O8          3.7990   -1.9390   -4.1890 o         1 MOL     -0.750847
     49 H21         1.7210   -3.7560   -1.2860 hn        1 MOL      0.217001
     50 H22         3.6650   -5.8780   -1.9660 h1        1 MOL      0.111062
     51 H23         2.8950   -4.5790   -3.8810 hc        1 MOL      0.063082
     52 H24         4.5720   -4.4550   -3.6660 hc        1 MOL      0.063082
     53 N5          4.3850   -3.6900    0.2020 n         1 MOL     -0.031603
     54 C17         5.3370   -3.2860    1.1490 c3        1 MOL     -0.272066
     55 C18         6.1470   -1.9990    0.7120 c         1 MOL      0.561711
     56 O9          7.1100   -1.5010    1.3130 o         1 MOL     -0.587599
     57 H25         3.4400   -3.3580    0.3210 hn        1 MOL      0.109477
     58 H26         6.0430   -4.1070    1.2820 h1        1 MOL      0.124451
     59 H27         4.8280   -3.2490    2.1120 h1        1 MOL      0.124451
     60 N6          5.7770   -1.3000   -0.3580 n         1 MOL     -0.222855
     61 C19         6.4860   -0.1970   -0.9360 c3        1 MOL     -0.186407
     62 C20         6.5400    1.1570   -0.1250 c         1 MOL      0.341355
     63 O10         7.1740    2.1680   -0.5300 o         1 MOL     -0.516867
     64 C21         5.8520    0.1750   -2.2500 c3        1 MOL     -0.183571
     65 C22         4.5310    1.0130   -2.2480 c         1 MOL      0.575475
     66 N7          4.2480    1.5110   -3.3920 n         1 MOL     -0.768052
     67 O11         3.8230    1.0510   -1.2300 o         1 MOL     -0.452602
     68 H28         4.9870   -1.6450   -0.8920 hn        1 MOL      0.219321
     69 H29         7.5270   -0.4640   -1.1070 h1        1 MOL      0.154052
     70 H30         5.6670   -0.6640   -2.9170 hc        1 MOL      0.093183
     71 H31         6.5980    0.7400   -2.8070 hc        1 MOL      0.093183
     72 H32         4.8430    1.3150   -4.1750 hn        1 MOL      0.371844
     73 H33         3.3590    1.9900   -3.4380 hn        1 MOL      0.371844
     74 N8          5.8390    1.2160    1.0040 n         1 MOL     -0.043931
     75 C23         5.7560    2.2780    1.9890 c3        1 MOL     -0.369864
     76 C24         4.4830    3.1660    1.9370 c         1 MOL      0.644569
     77 O12         4.4260    4.2240    2.5710 o         1 MOL     -0.569474
     78 H34         5.3340    0.3840    1.2770 hn        1 MOL      0.291295
     79 H35         6.6400    2.9140    1.9660 h1        1 MOL      0.146402
     80 H36         5.8410    1.7460    2.9310 h1        1 MOL      0.146402
     81 N9          3.4680    2.8050    1.1480 n         1 MOL     -0.604212
     82 C25         2.2620    3.6070    0.9660 c3        1 MOL      0.045140
     83 C26         1.0220    2.6830    0.9000 c         1 MOL      0.603344
     84 O13         1.0820    1.5740    0.4140 o         1 MOL     -0.631678
     85 C27         2.4060    4.4340   -0.3630 c3        1 MOL      0.190507
     86 C28         3.5740    5.4190   -0.2880 ca        1 MOL     -0.052795
     87 C29         4.8180    4.9590   -0.7650 ca        1 MOL     -0.196160
     88 C30         3.5410    6.6730    0.2340 ca        1 MOL     -0.196160
     89 C31         5.9690    5.7120   -0.5850 ca        1 MOL     -0.217048
     90 C32         4.6990    7.3870    0.5050 ca        1 MOL     -0.217048
     91 C33         5.9550    6.9530    0.0630 ca        1 MOL      0.412799
     92 O14         6.9610    7.7890    0.0500 oh        1 MOL     -0.515872
     93 H37         3.5560    1.9990    0.5440 hn        1 MOL      0.561065
     94 H38         2.1290    4.2740    1.8080 h1        1 MOL      0.095097
     95 H39         1.5130    5.0280   -0.5280 hc        1 MOL     -0.054942
     96 H40         2.4930    3.7160   -1.1830 hc        1 MOL     -0.054942
     97 H41         4.9500    3.9530   -1.1160 ha        1 MOL      0.122890
     98 H42         2.5880    7.0610    0.5570 ha        1 MOL      0.122890
     99 H43         6.9070    5.3020   -0.9340 ha        1 MOL      0.120979
    100 H44         4.6100    8.3450    0.9990 ha        1 MOL      0.120979
    101 H45         6.7700    8.7260    0.0730 ho        1 MOL      0.369888
    102 N10        -0.1420    3.1480    1.3980 n         1 MOL     -0.636851
    103 C34        -1.3980    2.5240    1.3590 c3        1 MOL      0.291667
    104 C35        -2.2890    3.4180    0.4370 c         1 MOL      0.546967
    105 O15        -2.3620    4.6320    0.6990 o         1 MOL     -0.555325
    106 C36        -1.9250    2.3110    2.7670 c3        1 MOL     -0.017089
    107 C37        -1.3720    0.9100    3.2530 c3        1 MOL     -0.026223
    108 C38        -3.4810    2.3640    2.8080 c3        1 MOL     -0.300087
    109 C39        -1.7110    0.5900    4.6660 c3        1 MOL     -0.065162
    110 H46        -0.0570    3.9440    2.0110 hn        1 MOL      0.288016
    111 H47        -1.2870    1.5780    0.8320 h1        1 MOL     -0.004460
    112 H48        -1.5790    3.0660    3.4790 hc        1 MOL      0.066221
    113 H49        -0.3060    1.0860    3.2990 hc        1 MOL      0.052143
    114 H50        -1.5570    0.0150    2.6610 hc        1 MOL      0.052143
    115 H51        -3.7520    2.2440    3.8560 hc        1 MOL      0.063505
    116 H52        -3.8960    3.2410    2.3220 hc        1 MOL      0.063505
    117 H53        -3.9140    1.4810    2.3460 hc        1 MOL      0.063505
    118 H54        -1.5870    1.3900    5.3910 hc        1 MOL      0.015796
    119 H55        -2.7240    0.1800    4.7250 hc        1 MOL      0.015796
    120 H56        -0.9850   -0.1550    4.9890 hc        1 MOL      0.015796
    121 N11        -2.9180    2.8620   -0.5750 n         1 MOL     -0.387439
    122 C40        -4.0580    3.4650   -1.2340 c3        1 MOL      0.136617
    123 C41        -5.4770    3.2810   -0.5890 c         1 MOL      0.285154
    124 O16        -5.6090    2.4200    0.2590 o         1 MOL     -0.250477
    125 C42        -4.0780    2.8150   -2.6020 c3        1 MOL     -0.396206
    126 O17        -4.6060    1.4640   -2.5500 oh        1 MOL     -0.272747
    127 H57        -2.8180    1.9120   -0.8870 hn        1 MOL      0.297595
    128 H58        -3.8740    4.5100   -1.4520 h1        1 MOL      0.064638
    129 H59        -3.0500    2.7740   -2.9660 h1        1 MOL      0.157003
    130 H60        -4.6560    3.4230   -3.2940 h1        1 MOL      0.157003
    131 H61        -4.3750    1.0950   -3.4010 ho        1 MOL      0.340172
    132 N12        -6.5330    4.0100   -0.9470 n         1 MOL     -0.352724
    133 C43        -7.8900    3.7560   -0.4170 c3        1 MOL      0.135577
    134 C44        -8.3600    2.2770   -0.6540 c         1 MOL      0.408307
    135 O18        -9.2440    1.8040    0.0410 o         1 MOL     -0.502551
    136 C45        -8.8830    4.8340   -1.0020 c3        1 MOL     -0.310816
    137 H62        -6.2840    4.7600   -1.5840 hn        1 MOL      0.273079
    138 H63        -7.7850    3.8920    0.6590 h1        1 MOL      0.083877
    139 H64        -8.5000    5.7930   -0.6620 hc        1 MOL      0.102614
    140 H65        -8.7420    4.7550   -2.0820 hc        1 MOL      0.102614
    141 H66        -9.9240    4.6770   -0.7280 hc        1 MOL      0.102614
    142 N13        -7.7620    1.5890   -1.6530 n         1 MOL     -0.278823
    143 C46        -8.0450    0.1750   -2.0250 c3        1 MOL      0.158468
    144 C47        -7.0970   -0.8320   -1.3000 c         1 MOL      0.319543
    145 O19        -7.5270   -1.9930   -1.0890 o         1 MOL     -0.522891
    146 C48        -7.8690    0.1150   -3.4840 c3        1 MOL     -0.285070
    147 H67        -7.2200    2.2270   -2.2150 hn        1 MOL      0.201921
    148 H68        -9.0700   -0.0420   -1.7160 h1        1 MOL      0.097053
    149 H69        -8.0000   -0.9170   -3.8020 hc        1 MOL      0.074683
    150 H70        -8.6770    0.6780   -3.9470 hc        1 MOL      0.074683
    151 H71        -6.9480    0.6240   -3.7880 hc        1 MOL      0.074683
    152 N14        -5.9100   -0.3770   -0.8430 n         1 MOL     -0.011422
    153 C49        -5.1290   -1.0450    0.2470 c3        1 MOL     -0.088283
    154 C50        -5.7930   -0.9090    1.5920 c         1 MOL      0.519136
    155 O20        -5.6810   -1.8320    2.4350 o         1 MOL     -0.555023
    156 C51        -3.6560   -0.6180    0.3290 c3        1 MOL     -0.149493
    157 C52        -2.8070   -1.3530   -0.7760 c3        1 MOL     -0.140144
    158 C53        -1.3690   -0.8940   -0.7990 c         1 MOL      0.700909
    159 O21        -0.4910   -1.6180   -0.2970 o         1 MOL     -0.713210
    160 O22        -1.1340    0.1120   -1.4680 o         1 MOL     -0.713210
    161 H72        -5.5480    0.5450   -1.0420 hn        1 MOL     -0.158185
    162 H73        -5.1590   -2.0900   -0.0500 h1        1 MOL      0.039630
    163 H74        -3.2200   -0.8650    1.2960 hc        1 MOL      0.154674
    164 H75        -3.5700    0.4560    0.1280 hc        1 MOL      0.154674
    165 H76        -3.1890   -1.2380   -1.7940 hc        1 MOL      0.015639
    166 H77        -2.7940   -2.4210   -0.5620 hc        1 MOL      0.015639
    167 N15        -6.5050    0.1740    1.8350 n         1 MOL     -0.126585
    168 C54        -7.1940    0.4780    3.0910 c3        1 MOL     -0.248516
    169 H78        -6.9840   -0.3050    3.8190 h1        1 MOL      0.106789
    170 H79        -6.8430    1.4360    3.4770 h1        1 MOL      0.106789
    171 H80        -8.2680    0.5300    2.9140 h1        1 MOL      0.106789
    172 H81        -6.2630    0.9480    1.2300 hn        1 MOL      0.108292
    173 Ca1         1.5020   -0.2660   -1.4820 Ca        1 MOL      1.828258
    174 O23         2.1150    0.0580   -4.2970 oh        1 MOL     -0.889643
    175 H82         2.7420   -0.6640   -4.3320 ho        1 MOL      0.417595
    176 H83         2.3770    0.6360   -5.0200 ho        1 MOL      0.417595
    177 O24         0.3180   -1.7990   -3.2210 oh        1 MOL     -0.889643
    178 H84         0.4360   -1.3420   -4.0500 ho        1 MOL      0.417595
    179 H85        -0.2530   -2.5420   -3.4220 ho        1 MOL      0.417595
    180 O25         0.9520    2.2660   -2.5260 oh        1 MOL     -0.889643
    181 H86         0.2410    2.0690   -3.1450 ho        1 MOL      0.417595
    182 H87         1.0260    3.2250   -2.5460 ho        1 MOL      0.417595
@<TRIPOS>BOND
     1    1    2 1   
     2    1    4 1   
     3    1    5 1   
     4    1    6 1   
     5    2    3 2   
     6    2    7 1   
     7    7    8 1   
     8    7   15 1   
     9    8    9 1   
    10    8   11 1   
    11    8   16 1   
    12    9   10 2   
    13    9   19 1   
    14   11   12 1   
    15   11   17 1   
    16   11   18 1   
    17   12   13 1   
    18   12   14 1   
    19   19   20 1   
    20   19   28 1   
    21   20   21 1   
    22   20   23 1   
    23   20   29 1   
    24   21   22 2   
    25   21   41 1   
    26   23   24 1   
    27   23   30 1   
    28   23   31 1   
    29   24   25 1   
    30   24   32 1   
    31   24   33 1   
    32   25   26 1   
    33   25   34 1   
    34   25   35 1   
    35   26   27 1   
    36   26   36 1   
    37   26   37 1   
    38   27   38 1   
    39   27   39 1   
    40   27   40 1   
    41   41   42 1   
    42   41   49 1   
    43   42   43 1   
    44   42   45 1   
    45   42   50 1   
    46   43   44 2   
    47   43   53 1   
    48   45   46 1   
    49   45   51 1   
    50   45   52 1   
    51   46   47 1   
    52   46   48 1   
    53   53   54 1   
    54   53   57 1   
    55   54   55 1   
    56   54   58 1   
    57   54   59 1   
    58   55   56 2   
    59   55   60 1   
    60   60   61 1   
    61   60   68 1   
    62   61   62 1   
    63   61   64 1   
    64   61   69 1   
    65   62   63 2   
    66   62   74 1   
    67   64   65 1   
    68   64   70 1   
    69   64   71 1   
    70   65   66 1   
    71   65   67 2   
    72   66   72 1   
    73   66   73 1   
    74   74   75 1   
    75   74   78 1   
    76   75   76 1   
    77   75   79 1   
    78   75   80 1   
    79   76   77 2   
    80   76   81 1   
    81   81   82 1   
    82   81   93 1   
    83   82   83 1   
    84   82   85 1   
    85   82   94 1   
    86   83   84 2   
    87   83  102 1   
    88   85   86 1   
    89   85   95 1   
    90   85   96 1   
    91   86   87 ar  
    92   86   88 ar  
    93   87   89 ar  
    94   87   97 1   
    95   88   90 ar  
    96   88   98 1   
    97   89   91 ar  
    98   89   99 1   
    99   90   91 ar  
   100   90  100 1   
   101   91   92 1   
   102   92  101 1   
   103  102  103 1   
   104  102  110 1   
   105  103  104 1   
   106  103  106 1   
   107  103  111 1   
   108  104  105 2   
   109  104  121 1   
   110  106  107 1   
   111  106  108 1   
   112  106  112 1   
   113  107  109 1   
   114  107  113 1   
   115  107  114 1   
   116  108  115 1   
   117  108  116 1   
   118  108  117 1   
   119  109  118 1   
   120  109  119 1   
   121  109  120 1   
   122  121  122 1   
   123  121  127 1   
   124  122  123 1   
   125  122  125 1   
   126  122  128 1   
   127  123  124 2   
   128  123  132 1   
   129  125  126 1   
   130  125  129 1   
   131  125  130 1   
   132  126  131 1   
   133  132  133 1   
   134  132  137 1   
   135  133  134 1   
   136  133  136 1   
   137  133  138 1   
   138  134  135 2   
   139  134  142 1   
   140  136  139 1   
   141  136  140 1   
   142  136  141 1   
   143  142  143 1   
   144  142  147 1   
   145  143  144 1   
   146  143  146 1   
   147  143  148 1   
   148  144  145 2   
   149  144  152 1   
   150  146  149 1   
   151  146  150 1   
   152  146  151 1   
   153  152  153 1   
   154  152  161 1   
   155  153  154 1   
   156  153  156 1   
   157  153  162 1   
   158  154  155 2   
   159  154  167 1   
   160  156  157 1   
   161  156  163 1   
   162  156  164 1   
   163  157  158 1   
   164  157  165 1   
   165  157  166 1   
   166  158  159 1   
   167  158  160 1   
   168  167  168 1   
   169  167  172 1   
   170  168  169 1   
   171  168  170 1   
   172  168  171 1   
   173  174  175 1   
   174  174  176 1   
   175  177  178 1   
   176  177  179 1   
   177  180  181 1   
   178  180  182 1   
@<TRIPOS>SUBSTRUCTURE
     1 MOL         1 TEMP              0 ****  ****    0 ROOT
