@<TRIPOS>MOLECULE
MOL
  189   185     1     0     0
SMALL
resp


@<TRIPOS>ATOM
      1 C1          1.1980    4.3790   -5.2280 c3        1 MOL     -0.344964
      2 C2          1.1430    3.4950   -3.9680 c         1 MOL      0.753650
      3 O1          0.0980    3.5060   -3.2520 o         1 MOL     -0.606648
      4 H1          2.0580    5.0450   -5.1670 hc        1 MOL      0.084344
      5 H2          1.2910    3.7470   -6.1120 hc        1 MOL      0.084344
      6 H3          0.2840    4.9700   -5.2980 hc        1 MOL      0.084344
      7 N1          2.2170    2.6830   -3.7040 n         1 MOL     -0.660559
      8 C3          2.3520    2.1230   -2.3440 c3        1 MOL      0.417533
      9 C4          2.7880    3.2450   -1.3170 c         1 MOL      0.189175
     10 O2          3.8860    3.7880   -1.3500 o         1 MOL     -0.509981
     11 C5          3.2750    0.9590   -2.3750 c3        1 MOL     -0.333331
     12 C6          3.8600    0.5510   -1.0500 c         1 MOL      0.827544
     13 O3          3.2090    0.7770    0.0070 o         1 MOL     -0.685064
     14 O4          4.9800    0.0260   -1.0060 o         1 MOL     -0.685064
     15 H4          2.9970    2.5700   -4.3330 hn        1 MOL      0.343187
     16 H5          1.3340    1.8090   -2.0700 h1        1 MOL     -0.041264
     17 H6          4.0900    1.1630   -3.0720 hc        1 MOL      0.057864
     18 H7          2.7720    0.0860   -2.7830 hc        1 MOL      0.057864
     19 N2          1.8470    3.5870   -0.4580 n         1 MOL     -0.009414
     20 C7          1.8960    4.7410    0.4350 c3        1 MOL     -0.072443
     21 C8          2.9710    4.5620    1.5470 c         1 MOL      0.554316
     22 O5          3.2700    5.5940    2.1730 o         1 MOL     -0.596071
     23 C9          0.5120    4.8940    1.0250 c3        1 MOL     -0.199350
     24 C10        -0.5870    5.2700    0.0050 c3        1 MOL     -0.025499
     25 C11        -0.4660    6.6720   -0.5360 c3        1 MOL     -0.065152
     26 C12         0.0490    6.6190   -1.9440 c3        1 MOL      0.051229
     27 N3          0.6310    7.8680   -2.3230 n4        1 MOL     -0.278076
     28 H8          1.0400    2.9960   -0.4010 hn        1 MOL      0.191864
     29 H9          2.2800    5.6270   -0.0540 h1        1 MOL      0.074336
     30 H10         0.4580    5.5980    1.8650 hc        1 MOL      0.087452
     31 H11         0.2680    3.9390    1.4900 hc        1 MOL      0.087452
     32 H12        -1.5860    5.1060    0.3930 hc        1 MOL      0.069266
     33 H13        -0.6200    4.5960   -0.8550 hc        1 MOL      0.069266
     34 H14         0.2610    7.2200    0.0560 hc        1 MOL      0.030426
     35 H15        -1.3970    7.2340   -0.4660 hc        1 MOL      0.030426
     36 H16        -0.7270    6.3770   -2.6740 hx        1 MOL      0.072834
     37 H17         0.7420    5.7770   -1.9750 hx        1 MOL      0.072834
     38 H18         0.8820    7.9880   -3.2950 hn        1 MOL      0.298873
     39 H19        -0.0860    8.5770   -2.2130 hn        1 MOL      0.298873
     40 H20         1.3820    8.1850   -1.7250 hn        1 MOL      0.298873
     41 N4          3.5850    3.4140    1.7210 n         1 MOL     -0.360870
     42 C13         4.5020    3.1840    2.7980 c3        1 MOL     -0.001465
     43 C14         5.6910    2.1990    2.5870 c         1 MOL      0.423763
     44 O6          6.6040    2.0930    3.4310 o         1 MOL     -0.524158
     45 C15         3.7330    2.6950    4.0240 c3        1 MOL     -0.123456
     46 C16         2.6440    1.6050    3.8300 c         1 MOL      0.772885
     47 O7          2.6210    0.7930    2.8940 o         1 MOL     -0.758599
     48 O8          1.6440    1.6200    4.6520 o         1 MOL     -0.758599
     49 H21         3.1670    2.6410    1.2160 hn        1 MOL      0.189703
     50 H22         5.0100    4.1140    3.0370 h1        1 MOL      0.121850
     51 H23         3.2170    3.5820    4.4060 hc        1 MOL      0.043831
     52 H24         4.3820    2.6060    4.9010 hc        1 MOL      0.043831
     53 N5          5.8280    1.7320    1.3230 n         1 MOL     -0.226527
     54 C17         7.1540    1.3220    0.7770 c3        1 MOL     -0.350119
     55 C18         7.4830   -0.1490    0.9010 c         1 MOL      0.587943
     56 O9          8.6150   -0.5410    0.5910 o         1 MOL     -0.579327
     57 H25         5.1010    1.9060    0.6560 hn        1 MOL      0.275900
     58 H26         7.9210    1.8350    1.3640 h1        1 MOL      0.157538
     59 H27         7.2950    1.5890   -0.2700 h1        1 MOL      0.157538
     60 N6          6.4700   -0.9960    1.2910 n         1 MOL     -0.303074
     61 C19         6.6830   -2.4500    1.4730 c3        1 MOL      0.009488
     62 C20         6.7640   -3.1700    0.1150 c         1 MOL      0.441812
     63 O10         7.1660   -4.3020    0.0830 o         1 MOL     -0.541524
     64 C21         5.5920   -3.0120    2.4810 c3        1 MOL     -0.173916
     65 C22         4.1670   -2.5120    2.1620 c         1 MOL      0.789256
     66 O11         3.7710   -2.4590    0.9820 o         1 MOL     -0.730687
     67 O12         3.4220   -2.2180    3.0940 o         1 MOL     -0.730687
     68 H28         5.5340   -0.6300    1.2400 hn        1 MOL      0.183351
     69 H29         7.6400   -2.5720    1.9840 h1        1 MOL      0.092180
     70 H30         5.8380   -2.4770    3.3930 hc        1 MOL      0.053969
     71 H31         5.6490   -4.0840    2.6370 hc        1 MOL      0.053969
     72 N7          6.2750   -2.4950   -0.9550 n         1 MOL     -0.201433
     73 C23         6.1990   -3.0970   -2.3300 c3        1 MOL     -0.213983
     74 C24         4.9040   -3.7220   -2.6170 c         1 MOL      0.507295
     75 O13         4.8230   -4.4920   -3.5930 o         1 MOL     -0.565312
     76 H32         5.9640   -1.5450   -0.8400 hn        1 MOL      0.234281
     77 H33         6.9220   -3.9150   -2.3940 h1        1 MOL      0.118755
     78 H34         6.4830   -2.2770   -2.9930 h1        1 MOL      0.118755
     79 N8          3.8450   -3.4100   -1.8440 n         1 MOL     -0.097176
     80 C25         2.5560   -4.0290   -2.0590 c3        1 MOL     -0.148073
     81 C26         1.3590   -3.0960   -1.7490 c         1 MOL      0.648583
     82 O14         1.5810   -2.1890   -0.9950 o         1 MOL     -0.655875
     83 C27         2.3650   -5.2670   -1.2360 c3        1 MOL      0.386742
     84 C28         3.4070   -6.4310   -1.5710 c3        1 MOL     -0.364876
     85 O15         2.5230   -4.9490    0.1990 oh        1 MOL     -0.659910
     86 H35         3.8830   -2.7790   -1.0550 hn        1 MOL      0.109833
     87 H36         2.4290   -4.2520   -3.1180 h1        1 MOL      0.057904
     88 H37         1.3680   -5.6800   -1.4230 h1        1 MOL      0.004550
     89 H38         3.1040   -4.2000    0.3360 ho        1 MOL      0.398372
     90 H39         3.1540   -6.8130   -2.5610 hc        1 MOL      0.104574
     91 H40         4.4520   -6.1370   -1.4880 hc        1 MOL      0.104574
     92 H41         3.2350   -7.2680   -0.8990 hc        1 MOL      0.104574
     93 N9          0.2490   -3.2750   -2.4830 n         1 MOL     -0.568064
     94 C29        -0.9250   -2.4390   -2.4000 c3        1 MOL      0.106925
     95 C30        -2.1510   -3.1550   -1.7940 c         1 MOL      0.346189
     96 O16        -2.5630   -4.2590   -2.2630 o         1 MOL     -0.547419
     97 C31        -1.4410   -1.8530   -3.7510 c3        1 MOL      0.155851
     98 C32        -0.5480   -0.6700   -4.0920 c3        1 MOL     -0.038837
     99 C33        -2.9080   -1.4730   -3.8180 c3        1 MOL     -0.186155
    100 C34        -0.7080    0.0370   -5.4450 c3        1 MOL     -0.315208
    101 H42         0.2170   -4.0500   -3.1280 hn        1 MOL      0.323999
    102 H43        -0.7060   -1.6460   -1.6870 h1        1 MOL      0.061679
    103 H44        -1.3370   -2.6730   -4.4610 hc        1 MOL      0.003572
    104 H45         0.4530   -1.0760   -4.1830 hc        1 MOL      0.059905
    105 H46        -0.5120    0.1330   -3.3570 hc        1 MOL      0.059905
    106 H47        -3.1120   -0.8880   -2.9270 hc        1 MOL      0.032941
    107 H48        -3.1310   -0.9780   -4.7640 hc        1 MOL      0.032941
    108 H49        -3.5300   -2.3690   -3.8360 hc        1 MOL      0.032941
    109 H50        -0.7930   -0.7160   -6.2290 hc        1 MOL      0.079918
    110 H51        -1.5710    0.6970   -5.5630 hc        1 MOL      0.079918
    111 H52         0.0990    0.7480   -5.6280 hc        1 MOL      0.079918
    112 N10        -2.6780   -2.6560   -0.6780 n         1 MOL     -0.092277
    113 C35        -3.9360   -2.9940    0.0570 c3        1 MOL      0.123112
    114 C36        -5.1310   -2.1960   -0.5310 c         1 MOL      0.065460
    115 O17        -4.9180   -1.1400   -1.1820 o         1 MOL     -0.124235
    116 C37        -3.7170   -2.8380    1.5770 c3        1 MOL      0.050116
    117 C38        -2.4450   -3.5450    2.1350 c3        1 MOL     -0.366766
    118 O18        -3.6300   -1.4560    1.8000 oh        1 MOL     -0.499266
    119 H53        -2.1900   -1.8500   -0.3240 hn        1 MOL      0.102672
    120 H54        -4.0790   -4.0630   -0.0540 h1        1 MOL      0.055813
    121 H55        -4.5680   -3.2480    2.1370 h1        1 MOL      0.073373
    122 H56        -2.7370   -1.1350    1.6290 ho        1 MOL      0.283029
    123 H57        -1.4990   -3.3700    1.6220 hc        1 MOL      0.108405
    124 H58        -2.3030   -3.2320    3.1650 hc        1 MOL      0.108405
    125 H59        -2.6150   -4.6140    1.9500 hc        1 MOL      0.108405
    126 N11        -6.3300   -2.6070   -0.2050 n         1 MOL     -0.044605
    127 C39        -7.5930   -1.9010   -0.4070 c3        1 MOL     -0.370745
    128 C40        -7.5470   -0.3660    0.1040 c         1 MOL      0.490257
    129 O19        -7.8280    0.5160   -0.7070 o         1 MOL     -0.486492
    130 C41        -8.8100   -2.5390    0.3080 c3        1 MOL      0.487167
    131 C42        -9.1470   -3.9770   -0.1190 c3        1 MOL     -0.428079
    132 O20        -8.7540   -2.5550    1.6940 oh        1 MOL     -0.727489
    133 H60        -6.3780   -3.5230    0.2260 hn        1 MOL      0.211655
    134 H61        -7.8520   -1.8350   -1.4640 h1        1 MOL      0.174393
    135 H62        -9.7340   -2.0630   -0.0340 h1        1 MOL      0.013132
    136 H63        -9.3590   -3.2030    2.0630 ho        1 MOL      0.451034
    137 H64        -9.2920   -3.9600   -1.2080 hc        1 MOL      0.111005
    138 H65        -8.3590   -4.6780    0.1130 hc        1 MOL      0.111005
    139 H66       -10.0160   -4.2240    0.4840 hc        1 MOL      0.111005
    140 N12        -6.9200   -0.0640    1.2400 n         1 MOL     -0.359231
    141 C43        -6.5850    1.3320    1.6850 c3        1 MOL      0.019698
    142 C44        -5.8200    2.1960    0.7190 c         1 MOL      0.323566
    143 O21        -5.9700    3.4250    0.6230 o         1 MOL     -0.543455
    144 C45        -5.7790    1.3140    3.0000 c3        1 MOL     -0.183940
    145 C46        -6.4900    0.5530    4.1550 c3        1 MOL      0.043795
    146 C47        -5.6660    0.3820    5.4130 c3        1 MOL     -0.000519
    147 C48        -4.3690   -0.4480    5.1200 c3        1 MOL      0.172097
    148 N13        -3.5170   -0.5310    6.2870 n4        1 MOL     -0.622512
    149 H67        -6.7580   -0.8150    1.9030 hn        1 MOL      0.284343
    150 H68        -7.4800    1.8530    2.0270 h1        1 MOL      0.109221
    151 H69        -5.6400    2.3580    3.2990 hc        1 MOL      0.082602
    152 H70        -4.7850    0.8810    2.8270 hc        1 MOL      0.082602
    153 H71        -6.6980   -0.4660    3.8230 hc        1 MOL      0.015498
    154 H72        -7.4160    0.9780    4.5300 hc        1 MOL      0.015498
    155 H73        -6.2460   -0.1790    6.1430 hc        1 MOL      0.018892
    156 H74        -5.2850    1.3070    5.8480 hc        1 MOL      0.018892
    157 H75        -3.9230   -0.0680    4.2050 hx        1 MOL      0.037771
    158 H76        -4.6610   -1.4610    4.8450 hx        1 MOL      0.037771
    159 H77        -2.7730   -1.1380    5.9780 hn        1 MOL      0.388731
    160 H78        -3.1760    0.3930    6.5120 hn        1 MOL      0.388731
    161 H79        -4.0140   -0.9730    7.0320 hn        1 MOL      0.388731
    162 N14        -5.0080    1.5990   -0.0430 n         1 MOL     -0.027107
    163 C49        -4.2550    2.2890   -1.0680 c3        1 MOL      0.009455
    164 C50        -4.7750    2.2440   -2.5000 c         1 MOL      0.455018
    165 O22        -4.6560    3.2580   -3.1630 o         1 MOL     -0.539950
    166 C51        -2.8100    1.7130   -0.9230 c3        1 MOL     -0.103756
    167 C52        -2.0660    1.5780    0.4240 c3        1 MOL     -0.015991
    168 C53        -0.8360    0.6170    0.3360 c         1 MOL      0.724048
    169 O23        -0.9620   -0.5950    0.5860 o         1 MOL     -0.699117
    170 O24         0.2960    1.0920    0.0540 o         1 MOL     -0.699117
    171 H80        -4.9760    0.6000    0.0980 hn        1 MOL      0.143300
    172 H81        -4.1130    3.3440   -0.8270 h1        1 MOL      0.075581
    173 H82        -2.2260    2.3250   -1.6120 hc        1 MOL      0.034146
    174 H83        -2.9400    0.7220   -1.3420 hc        1 MOL      0.034146
    175 H84        -2.6030    1.1990    1.2870 hc        1 MOL     -0.034827
    176 H85        -1.7000    2.5540    0.7360 hc        1 MOL     -0.034827
    177 N15        -5.5080    1.1510   -2.8280 n         1 MOL     -0.057761
    178 C54        -6.2510    0.9450   -4.0580 c3        1 MOL     -0.422633
    179 H86        -6.9200    0.0930   -3.9400 h1        1 MOL      0.146634
    180 H87        -6.8360    1.8360   -4.2840 h1        1 MOL      0.146634
    181 H88        -5.5560    0.7490   -4.8750 h1        1 MOL      0.146634
    182 H89        -5.5210    0.4180   -2.1530 hn        1 MOL      0.071404
    183 Ca1         1.6050   -1.0030    1.3230 Ca        1 MOL      1.743344
    184 O25         0.9230   -3.5960    1.8140 oh        1 MOL     -0.765742
    185 H90         0.6190   -4.2900    2.3860 ho        1 MOL      0.378449
    186 H91         1.3820   -4.0520    1.1050 ho        1 MOL      0.378449
    187 O26        -0.3110   -0.7390    3.3600 oh        1 MOL     -0.765742
    188 H92        -0.4300   -1.0300    4.2610 ho        1 MOL      0.378449
    189 H93        -0.5720    0.1770    3.3580 ho        1 MOL      0.378449
@<TRIPOS>BOND
     1    1    2 1   
     2    1    4 1   
     3    1    5 1   
     4    1    6 1   
     5    2    3 2   
     6    2    7 1   
     7    7    8 1   
     8    7   15 1   
     9    8    9 1   
    10    8   11 1   
    11    8   16 1   
    12    9   10 2   
    13    9   19 1   
    14   11   12 1   
    15   11   17 1   
    16   11   18 1   
    17   12   13 1   
    18   12   14 1   
    19   19   20 1   
    20   19   28 1   
    21   20   21 1   
    22   20   23 1   
    23   20   29 1   
    24   21   22 2   
    25   21   41 1   
    26   23   24 1   
    27   23   30 1   
    28   23   31 1   
    29   24   25 1   
    30   24   32 1   
    31   24   33 1   
    32   25   26 1   
    33   25   34 1   
    34   25   35 1   
    35   26   27 1   
    36   26   36 1   
    37   26   37 1   
    38   27   38 1   
    39   27   39 1   
    40   27   40 1   
    41   41   42 1   
    42   41   49 1   
    43   42   43 1   
    44   42   45 1   
    45   42   50 1   
    46   43   44 2   
    47   43   53 1   
    48   45   46 1   
    49   45   51 1   
    50   45   52 1   
    51   46   47 1   
    52   46   48 1   
    53   53   54 1   
    54   53   57 1   
    55   54   55 1   
    56   54   58 1   
    57   54   59 1   
    58   55   56 2   
    59   55   60 1   
    60   60   61 1   
    61   60   68 1   
    62   61   62 1   
    63   61   64 1   
    64   61   69 1   
    65   62   63 2   
    66   62   72 1   
    67   64   65 1   
    68   64   70 1   
    69   64   71 1   
    70   65   66 1   
    71   65   67 1   
    72   72   73 1   
    73   72   76 1   
    74   73   74 1   
    75   73   77 1   
    76   73   78 1   
    77   74   75 2   
    78   74   79 1   
    79   79   80 1   
    80   79   86 1   
    81   80   81 1   
    82   80   83 1   
    83   80   87 1   
    84   81   82 2   
    85   81   93 1   
    86   83   84 1   
    87   83   85 1   
    88   83   88 1   
    89   84   90 1   
    90   84   91 1   
    91   84   92 1   
    92   85   89 1   
    93   93   94 1   
    94   93  101 1   
    95   94   95 1   
    96   94   97 1   
    97   94  102 1   
    98   95   96 2   
    99   95  112 1   
   100   97   98 1   
   101   97   99 1   
   102   97  103 1   
   103   98  100 1   
   104   98  104 1   
   105   98  105 1   
   106   99  106 1   
   107   99  107 1   
   108   99  108 1   
   109  100  109 1   
   110  100  110 1   
   111  100  111 1   
   112  112  113 1   
   113  112  119 1   
   114  113  114 1   
   115  113  116 1   
   116  113  120 1   
   117  114  115 2   
   118  114  126 1   
   119  116  117 1   
   120  116  118 1   
   121  116  121 1   
   122  117  123 1   
   123  117  124 1   
   124  117  125 1   
   125  118  122 1   
   126  126  127 1   
   127  126  133 1   
   128  127  128 1   
   129  127  130 1   
   130  127  134 1   
   131  128  129 2   
   132  128  140 1   
   133  130  131 1   
   134  130  132 1   
   135  130  135 1   
   136  131  137 1   
   137  131  138 1   
   138  131  139 1   
   139  132  136 1   
   140  140  141 1   
   141  140  149 1   
   142  141  142 1   
   143  141  144 1   
   144  141  150 1   
   145  142  143 2   
   146  142  162 1   
   147  144  145 1   
   148  144  151 1   
   149  144  152 1   
   150  145  146 1   
   151  145  153 1   
   152  145  154 1   
   153  146  147 1   
   154  146  155 1   
   155  146  156 1   
   156  147  148 1   
   157  147  157 1   
   158  147  158 1   
   159  148  159 1   
   160  148  160 1   
   161  148  161 1   
   162  162  163 1   
   163  162  171 1   
   164  163  164 1   
   165  163  166 1   
   166  163  172 1   
   167  164  165 2   
   168  164  177 1   
   169  166  167 1   
   170  166  173 1   
   171  166  174 1   
   172  167  168 1   
   173  167  175 1   
   174  167  176 1   
   175  168  169 1   
   176  168  170 1   
   177  177  178 1   
   178  177  182 1   
   179  178  179 1   
   180  178  180 1   
   181  178  181 1   
   182  184  185 1   
   183  184  186 1   
   184  187  188 1   
   185  187  189 1   
@<TRIPOS>SUBSTRUCTURE
     1 MOL         1 TEMP              0 ****  ****    0 ROOT
