@<TRIPOS>MOLECULE
MOL
  189   185     1     0     0
SMALL
resp


@<TRIPOS>ATOM
      1 C1          1.0440   -4.1550    6.0300 c3        1 MOL     -0.472223
      2 C2          1.3080   -3.5550    4.6420 c         1 MOL      0.758290
      3 O1          1.2520   -2.3330    4.3780 o         1 MOL     -0.644232
      4 H1          0.0600   -3.8400    6.3790 hc        1 MOL      0.121601
      5 H2          1.0760   -5.2430    5.9680 hc        1 MOL      0.121601
      6 H3          1.8050   -3.8070    6.7290 hc        1 MOL      0.121601
      7 N1          1.7410   -4.3870    3.7340 n         1 MOL     -0.510631
      8 C3          2.2230   -4.0460    2.4140 c3        1 MOL      0.091367
      9 C4          2.0270   -5.0900    1.3580 c         1 MOL      0.450929
     10 O2          2.1700   -6.2640    1.6470 o         1 MOL     -0.550206
     11 C5          3.6540   -3.6610    2.5590 c3        1 MOL     -0.136075
     12 C6          4.3320   -3.2740    1.2280 c         1 MOL      0.470613
     13 O3          3.8510   -2.3060    0.5160 o         1 MOL     -0.596274
     14 O4          5.2640   -4.0530    0.8480 o         1 MOL     -0.596274
     15 H4          1.9930   -5.3340    3.9990 hn        1 MOL      0.293707
     16 H5          1.7390   -3.1410    2.0560 h1        1 MOL      0.044854
     17 H6          4.1810   -4.4580    3.0980 hc        1 MOL      0.032642
     18 H7          3.7950   -2.9170    3.3390 hc        1 MOL      0.032642
     19 N2          1.6780   -4.7300    0.0750 n         1 MOL     -0.025141
     20 C7          1.5290   -5.5140   -1.0750 c3        1 MOL     -0.185965
     21 C8          2.3010   -5.1430   -2.3980 c         1 MOL      0.519783
     22 O5          2.2810   -5.9300   -3.3640 o         1 MOL     -0.574356
     23 C9          0.0650   -5.8010   -1.3360 c3        1 MOL      0.209808
     24 C10        -0.7090   -4.4490   -1.6540 c3        1 MOL     -0.026408
     25 C11        -0.5310   -6.5140   -0.1740 c3        1 MOL     -0.271025
     26 C12        -2.1550   -4.5200   -1.9820 c3        1 MOL     -0.185085
     27 H8          1.4830   -3.7490   -0.0860 hn        1 MOL      0.121733
     28 H9          1.9730   -6.4900   -0.8530 h1        1 MOL      0.085379
     29 H10        -0.0080   -6.3750   -2.2580 hc        1 MOL     -0.030387
     30 H11        -0.1690   -3.9780   -2.4760 hc        1 MOL      0.053054
     31 H12        -0.5570   -3.7720   -0.8130 hc        1 MOL      0.053054
     32 H13        -0.4130   -5.9370    0.7500 hc        1 MOL      0.042990
     33 H14        -1.5790   -6.7700   -0.3300 hc        1 MOL      0.042990
     34 H15         0.0230   -7.4100    0.0960 hc        1 MOL      0.042990
     35 H16        -2.7410   -4.7520   -1.1000 hc        1 MOL      0.041779
     36 H17        -2.4720   -3.5480   -2.3580 hc        1 MOL      0.041779
     37 H18        -2.4820   -5.2410   -2.7270 hc        1 MOL      0.041779
     38 N3          3.0260   -4.0590   -2.3490 n         1 MOL     -0.435280
     39 C13         3.6970   -3.5260   -3.5780 c3        1 MOL      0.201050
     40 C14         5.0790   -2.8520   -3.3590 c         1 MOL      0.304135
     41 O6          5.8560   -2.7900   -4.3470 o         1 MOL     -0.530600
     42 C15         2.8760   -2.4320   -4.3600 c3        1 MOL     -0.443299
     43 C16         2.2910   -1.3470   -3.4810 c         1 MOL      0.784378
     44 O7          2.7230   -1.1580   -2.3320 o         1 MOL     -0.684365
     45 O8          1.2890   -0.6900   -3.8920 o         1 MOL     -0.684365
     46 H19         3.0480   -3.4620   -1.5400 hn        1 MOL      0.340036
     47 H20         3.9280   -4.2850   -4.3250 h1        1 MOL      0.073324
     48 H21         2.0220   -3.0130   -4.7050 hc        1 MOL      0.118912
     49 H22         3.5500   -2.0100   -5.1040 hc        1 MOL      0.118912
     50 N4          5.4820   -2.5430   -2.0900 n         1 MOL     -0.037399
     51 C17         6.8260   -1.9720   -1.7740 c3        1 MOL     -0.149400
     52 C18         7.0120   -0.4570   -2.0010 c         1 MOL      0.409950
     53 O9          8.0990    0.0250   -2.3160 o         1 MOL     -0.610261
     54 H23         4.9110   -2.6910   -1.2640 hn        1 MOL     -0.012178
     55 H24         7.6060   -2.4760   -2.3330 h1        1 MOL      0.090894
     56 H25         7.0210   -2.0930   -0.7160 h1        1 MOL      0.090894
     57 N5          5.9570    0.3500   -2.1580 n         1 MOL      0.070865
     58 C19         6.0440    1.7670   -2.6010 c3        1 MOL     -0.216020
     59 C20         6.5510    2.8890   -1.5840 c         1 MOL      0.467936
     60 O10         6.6160    4.0620   -1.8970 o         1 MOL     -0.498005
     61 C21         4.7440    2.1680   -3.3520 c3        1 MOL     -0.198067
     62 C22         3.5500    2.3090   -2.4310 c         1 MOL      0.733504
     63 O11         3.5180    1.8410   -1.2390 o         1 MOL     -0.681073
     64 O12         2.5430    2.8290   -2.9000 o         1 MOL     -0.681073
     65 H26         5.0840   -0.1620   -2.1760 hn        1 MOL      0.106764
     66 H27         6.7600    1.7130   -3.4270 h1        1 MOL      0.117578
     67 H28         4.5590    1.3980   -4.1150 hc        1 MOL      0.072499
     68 H29         4.9720    3.1300   -3.8060 hc        1 MOL      0.072499
     69 N6          6.8110    2.4140   -0.3940 n         1 MOL     -0.262380
     70 C23         7.0530    3.2970    0.7480 c3        1 MOL     -0.263566
     71 C24         5.9240    4.1280    1.4560 c         1 MOL      0.512213
     72 O13         6.3070    5.1110    2.1100 o         1 MOL     -0.564779
     73 H30         6.7720    1.4230   -0.1900 hn        1 MOL      0.239630
     74 H31         7.7600    4.0840    0.4590 h1        1 MOL      0.110283
     75 H32         7.4560    2.6020    1.4830 h1        1 MOL      0.110283
     76 N7          4.6540    3.7190    1.2280 n         1 MOL     -0.165919
     77 C25         3.3780    4.2700    1.7980 c3        1 MOL     -0.287018
     78 C26         2.2710    3.1570    2.0940 c         1 MOL      0.592259
     79 O14         2.3220    2.0270    1.5780 o         1 MOL     -0.567203
     80 C27         2.8040    5.4230    0.8740 c3        1 MOL     -0.000162
     81 C28         3.6250    6.6860    0.9990 c3        1 MOL     -0.246888
     82 C29         3.0600    7.7690    0.1940 c         1 MOL      0.611729
     83 N8          3.5770    8.0820   -0.8880 n         1 MOL     -0.655561
     84 O15         2.0770    8.3810    0.6230 o         1 MOL     -0.616376
     85 H33         4.5260    3.0150    0.5130 hn        1 MOL      0.196216
     86 H34         3.5660    4.6580    2.8040 h1        1 MOL      0.127510
     87 H35         1.7450    5.6370    1.0010 hc        1 MOL      0.087311
     88 H36         2.7880    5.0040   -0.1290 hc        1 MOL      0.087311
     89 H37         4.6460    6.4810    0.6610 hc        1 MOL      0.099387
     90 H38         3.7930    6.9270    2.0460 hc        1 MOL      0.099387
     91 H39         4.4740    7.7840   -1.2590 hn        1 MOL      0.323763
     92 H40         3.1050    8.8220   -1.3720 hn        1 MOL      0.323763
     93 N9          1.3460    3.4320    3.0770 n         1 MOL     -0.489876
     94 C30         0.1530    2.5280    3.2040 c3        1 MOL      0.193104
     95 C31        -1.0720    3.0930    2.3510 c         1 MOL      0.410665
     96 O16        -1.2480    4.3040    2.3160 o         1 MOL     -0.575393
     97 C32        -0.2120    2.1070    4.6430 c3        1 MOL      0.112220
     98 C33        -1.4200    1.2030    4.8030 c3        1 MOL     -0.398929
     99 C34         1.0350    1.4140    5.3190 c3        1 MOL     -0.398929
    100 H41         1.2880    4.3590    3.4670 hn        1 MOL      0.274832
    101 H42         0.4550    1.5530    2.8250 h1        1 MOL      0.170833
    102 H43        -0.4130    3.0730    5.0880 hc        1 MOL     -0.009675
    103 H44        -1.2940    0.2220    4.3580 hc        1 MOL      0.101345
    104 H45        -1.4240    0.8210    5.8300 hc        1 MOL      0.101345
    105 H46        -2.3510    1.7260    4.6080 hc        1 MOL      0.101345
    106 H47         0.9590    1.3970    6.4050 hc        1 MOL      0.101345
    107 H48         1.1450    0.3670    5.0170 hc        1 MOL      0.101345
    108 H49         1.9410    1.9240    4.9980 hc        1 MOL      0.101345
    109 N10        -1.8780    2.1990    1.7420 n         1 MOL     -0.095150
    110 C35        -2.9570    2.5900    0.8100 c3        1 MOL      0.246855
    111 C36        -4.3190    2.0050    1.3410 c         1 MOL      0.178642
    112 O17        -4.3130    1.1010    2.2130 o         1 MOL     -0.423374
    113 C37        -2.5530    1.9230   -0.4680 c3        1 MOL     -0.115234
    114 C38        -3.4380    2.1370   -1.6910 c         1 MOL      0.708521
    115 N11        -3.7600    3.2900   -2.0810 n         1 MOL     -0.766009
    116 O18        -3.9210    1.1760   -2.1870 o         1 MOL     -0.525577
    117 H50        -1.5720    1.2390    1.7650 hn        1 MOL     -0.044903
    118 H51        -3.0280    3.6730    0.8050 h1        1 MOL     -0.008404
    119 H52        -2.4520    0.8510   -0.2740 hc        1 MOL      0.049140
    120 H53        -1.5530    2.3050   -0.6800 hc        1 MOL      0.049140
    121 H54        -3.3780    4.1820   -1.7960 hn        1 MOL      0.347894
    122 H55        -4.2720    3.2780   -2.9580 hn        1 MOL      0.347894
    123 N12        -5.4260    2.5190    0.7890 n         1 MOL     -0.145428
    124 C39        -6.7150    1.8660    1.1050 c3        1 MOL     -0.005808
    125 C40        -6.8330    0.3350    0.7650 c         1 MOL      0.450884
    126 O19        -7.5500   -0.3450    1.4600 o         1 MOL     -0.570043
    127 C41        -7.8610    2.6830    0.4350 c3        1 MOL     -0.155991
    128 C42        -7.8480    2.7760   -1.0500 ca        1 MOL      0.135843
    129 C43        -8.5390    1.8370   -1.8310 ca        1 MOL     -0.260147
    130 C44        -6.9940    3.6710   -1.7690 ca        1 MOL     -0.260147
    131 C45        -8.4890    1.7580   -3.2260 ca        1 MOL     -0.210826
    132 C46        -7.0100    3.6810   -3.1950 ca        1 MOL     -0.210826
    133 C47        -7.7730    2.7600   -3.9840 ca        1 MOL      0.312270
    134 O20        -7.8250    2.7630   -5.4020 oh        1 MOL     -0.535941
    135 H56        -5.4390    3.1580    0.0030 hn        1 MOL      0.109877
    136 H57        -6.7670    2.0110    2.1830 h1        1 MOL      0.097407
    137 H58        -7.8260    3.6150    1.0050 hc        1 MOL      0.049473
    138 H59        -8.8090    2.2350    0.6920 hc        1 MOL      0.049473
    139 H60        -9.0410    1.0730   -1.2640 ha        1 MOL      0.167501
    140 H61        -6.3350    4.3670   -1.2890 ha        1 MOL      0.167501
    141 H62        -8.9010    0.9020   -3.7380 ha        1 MOL      0.136753
    142 H63        -6.4530    4.4640   -3.6920 ha        1 MOL      0.136753
    143 H64        -8.3070    2.0260   -5.7780 ho        1 MOL      0.419146
    144 N13        -6.0670   -0.1490   -0.2010 n         1 MOL     -0.057663
    145 C48        -5.9290   -1.5500   -0.4990 c3        1 MOL     -0.297194
    146 C49        -4.9890   -2.3200    0.5250 c         1 MOL      0.479247
    147 O21        -4.7660   -3.5230    0.3110 o         1 MOL     -0.533645
    148 C50        -5.3000   -1.6610   -2.0030 c3        1 MOL      0.043366
    149 C51        -6.2420   -0.8810   -2.9490 c3        1 MOL     -0.108213
    150 C52        -6.0850   -1.1500   -4.4260 c         1 MOL      0.765406
    151 O22        -5.0910   -0.7680   -5.0230 o         1 MOL     -0.764436
    152 O23        -7.0200   -1.7620   -4.9830 o         1 MOL     -0.764436
    153 H65        -5.5270    0.5360   -0.7080 hn        1 MOL      0.183545
    154 H66        -6.8900   -2.0560   -0.4260 h1        1 MOL      0.153864
    155 H67        -5.2700   -2.7010   -2.3110 hc        1 MOL      0.060925
    156 H68        -4.2820   -1.2590   -1.9830 hc        1 MOL      0.060925
    157 H69        -6.1660    0.1920   -2.7800 hc        1 MOL     -0.011911
    158 H70        -7.2280   -1.2310   -2.6640 hc        1 MOL     -0.011911
    159 N14        -4.5300   -1.7000    1.6350 n         1 MOL     -0.379858
    160 C53        -3.6450   -2.4100    2.5740 c3        1 MOL     -0.152315
    161 C54        -4.2280   -2.2630    3.9940 c         1 MOL      0.470624
    162 O24        -3.6570   -2.7770    4.9010 o         1 MOL     -0.542835
    163 C55        -2.1670   -1.7370    2.4690 c3        1 MOL     -0.055232
    164 C56        -1.5580   -2.0750    1.0990 c3        1 MOL      0.157889
    165 C57        -0.3700   -1.2880    0.6340 c         1 MOL      0.855424
    166 O25        -0.2250   -0.1050    1.0020 o         1 MOL     -0.787976
    167 O26         0.4890   -1.8710   -0.0110 o         1 MOL     -0.787976
    168 H71        -4.6940   -0.7050    1.6020 hn        1 MOL      0.259402
    169 H72        -3.6130   -3.4770    2.3620 h1        1 MOL      0.149858
    170 H73        -1.5250   -2.1640    3.2420 hc        1 MOL      0.072905
    171 H74        -2.2020   -0.6610    2.5980 hc        1 MOL      0.072905
    172 H75        -2.3180   -2.0300    0.3170 hc        1 MOL     -0.039092
    173 H76        -1.2850   -3.1280    1.1980 hc        1 MOL     -0.039092
    174 N15        -5.3410   -1.5080    4.1730 n         1 MOL     -0.149893
    175 C58        -6.0260   -1.1870    5.4130 c3        1 MOL     -0.133265
    176 H77        -6.8850   -0.5500    5.1990 h1        1 MOL      0.060002
    177 H78        -6.3670   -2.1060    5.8900 h1        1 MOL      0.060002
    178 H79        -5.3430   -0.6620    6.0810 h1        1 MOL      0.060002
    179 H80        -5.6270   -1.0660    3.3110 hn        1 MOL      0.146695
    180 Ca1         2.4180   -0.0290    0.0630 Ca        1 MOL      1.639414
    181 O27         4.9540    0.1670    1.1180 oh        1 MOL     -0.823550
    182 H81         4.9240   -0.0920    2.0450 ho        1 MOL      0.395749
    183 H82         5.7780   -0.2090    0.7980 ho        1 MOL      0.395749
    184 O28         2.5730   -0.6270    2.7360 oh        1 MOL     -0.823550
    185 H83         3.4450   -0.7470    3.1160 ho        1 MOL      0.395749
    186 H84         2.0060   -1.1710    3.2600 ho        1 MOL      0.395749
    187 O29         0.7830    1.0760   -1.8780 oh        1 MOL     -0.823550
    188 H85         0.6030    0.3850   -2.5100 ho        1 MOL      0.395749
    189 H86         1.5310    1.5470   -2.2270 ho        1 MOL      0.395749
@<TRIPOS>BOND
     1    1    2 1   
     2    1    4 1   
     3    1    5 1   
     4    1    6 1   
     5    2    3 2   
     6    2    7 1   
     7    7    8 1   
     8    7   15 1   
     9    8    9 1   
    10    8   11 1   
    11    8   16 1   
    12    9   10 2   
    13    9   19 1   
    14   11   12 1   
    15   11   17 1   
    16   11   18 1   
    17   12   13 1   
    18   12   14 1   
    19   19   20 1   
    20   19   27 1   
    21   20   21 1   
    22   20   23 1   
    23   20   28 1   
    24   21   22 2   
    25   21   38 1   
    26   23   24 1   
    27   23   25 1   
    28   23   29 1   
    29   24   26 1   
    30   24   30 1   
    31   24   31 1   
    32   25   32 1   
    33   25   33 1   
    34   25   34 1   
    35   26   35 1   
    36   26   36 1   
    37   26   37 1   
    38   38   39 1   
    39   38   46 1   
    40   39   40 1   
    41   39   42 1   
    42   39   47 1   
    43   40   41 2   
    44   40   50 1   
    45   42   43 1   
    46   42   48 1   
    47   42   49 1   
    48   43   44 1   
    49   43   45 1   
    50   50   51 1   
    51   50   54 1   
    52   51   52 1   
    53   51   55 1   
    54   51   56 1   
    55   52   53 2   
    56   52   57 1   
    57   57   58 1   
    58   57   65 1   
    59   58   59 1   
    60   58   61 1   
    61   58   66 1   
    62   59   60 2   
    63   59   69 1   
    64   61   62 1   
    65   61   67 1   
    66   61   68 1   
    67   62   63 1   
    68   62   64 1   
    69   69   70 1   
    70   69   73 1   
    71   70   71 1   
    72   70   74 1   
    73   70   75 1   
    74   71   72 2   
    75   71   76 1   
    76   76   77 1   
    77   76   85 1   
    78   77   78 1   
    79   77   80 1   
    80   77   86 1   
    81   78   79 2   
    82   78   93 1   
    83   80   81 1   
    84   80   87 1   
    85   80   88 1   
    86   81   82 1   
    87   81   89 1   
    88   81   90 1   
    89   82   83 1   
    90   82   84 2   
    91   83   91 1   
    92   83   92 1   
    93   93   94 1   
    94   93  100 1   
    95   94   95 1   
    96   94   97 1   
    97   94  101 1   
    98   95   96 2   
    99   95  109 1   
   100   97   98 1   
   101   97   99 1   
   102   97  102 1   
   103   98  103 1   
   104   98  104 1   
   105   98  105 1   
   106   99  106 1   
   107   99  107 1   
   108   99  108 1   
   109  109  110 1   
   110  109  117 1   
   111  110  111 1   
   112  110  113 1   
   113  110  118 1   
   114  111  112 2   
   115  111  123 1   
   116  113  114 1   
   117  113  119 1   
   118  113  120 1   
   119  114  115 1   
   120  114  116 2   
   121  115  121 1   
   122  115  122 1   
   123  123  124 1   
   124  123  135 1   
   125  124  125 1   
   126  124  127 1   
   127  124  136 1   
   128  125  126 2   
   129  125  144 1   
   130  127  128 1   
   131  127  137 1   
   132  127  138 1   
   133  128  129 ar  
   134  128  130 ar  
   135  129  131 ar  
   136  129  139 1   
   137  130  132 ar  
   138  130  140 1   
   139  131  133 ar  
   140  131  141 1   
   141  132  133 ar  
   142  132  142 1   
   143  133  134 1   
   144  134  143 1   
   145  144  145 1   
   146  144  153 1   
   147  145  146 1   
   148  145  148 1   
   149  145  154 1   
   150  146  147 2   
   151  146  159 1   
   152  148  149 1   
   153  148  155 1   
   154  148  156 1   
   155  149  150 1   
   156  149  157 1   
   157  149  158 1   
   158  150  151 1   
   159  150  152 1   
   160  159  160 1   
   161  159  168 1   
   162  160  161 1   
   163  160  163 1   
   164  160  169 1   
   165  161  162 2   
   166  161  174 1   
   167  163  164 1   
   168  163  170 1   
   169  163  171 1   
   170  164  165 1   
   171  164  172 1   
   172  164  173 1   
   173  165  166 1   
   174  165  167 1   
   175  174  175 1   
   176  174  179 1   
   177  175  176 1   
   178  175  177 1   
   179  175  178 1   
   180  181  182 1   
   181  181  183 1   
   182  184  185 1   
   183  184  186 1   
   184  187  188 1   
   185  187  189 1   
@<TRIPOS>SUBSTRUCTURE
     1 MOL         1 TEMP              0 ****  ****    0 ROOT
