@<TRIPOS>MOLECULE
MOL
  179   176     1     0     0
SMALL
resp


@<TRIPOS>ATOM
      1 C1         -0.8340   -3.3200    6.5300 c3        1 MOL     -0.244174
      2 C2         -0.4960   -3.0600    5.0640 c         1 MOL      0.772578
      3 O1         -1.4260   -2.9060    4.2590 o         1 MOL     -0.624705
      4 H1         -0.7420   -2.3910    7.0930 hc        1 MOL      0.063433
      5 H2         -1.8550   -3.6930    6.6080 hc        1 MOL      0.063433
      6 H3         -0.1450   -4.0600    6.9360 hc        1 MOL      0.063433
      7 N1          0.7340   -2.8640    4.5800 n         1 MOL     -0.700661
      8 C3          1.1230   -2.6000    3.1720 c3        1 MOL      0.233143
      9 C4          1.0950   -3.8580    2.3040 c         1 MOL      0.634045
     10 O2          1.6850   -4.8640    2.7120 o         1 MOL     -0.583134
     11 C5          2.4680   -1.9160    3.2130 c3        1 MOL     -0.207006
     12 C6          2.9080   -1.3750    1.7910 c         1 MOL      0.592143
     13 O3          2.3490   -1.6500    0.7000 o         1 MOL     -0.635884
     14 O4          3.9410   -0.6160    1.7660 o         1 MOL     -0.635884
     15 H4          1.3900   -2.6880    5.3400 hn        1 MOL      0.315170
     16 H5          0.4660   -1.9070    2.6430 h1        1 MOL      0.007402
     17 H6          3.2860   -2.5430    3.5720 hc        1 MOL      0.071410
     18 H7          2.4330   -1.0100    3.8150 hc        1 MOL      0.071410
     19 N2          0.4070   -3.7710    1.1780 n         1 MOL     -0.393218
     20 C7          0.1410   -4.8620    0.2440 c3        1 MOL     -0.044635
     21 C8          1.3950   -5.2480   -0.5670 c         1 MOL      0.493586
     22 O5          1.3480   -6.3000   -1.1890 o         1 MOL     -0.577016
     23 C9         -1.0760   -4.5290   -0.7080 c3        1 MOL     -0.080029
     24 C10        -1.8250   -5.8130   -1.2020 c3        1 MOL     -0.200020
     25 C11        -3.1240   -5.5590   -2.0450 c3        1 MOL     -0.069548
     26 C12        -3.8260   -6.6620   -2.7390 c3        1 MOL     -0.171419
     27 N3         -2.8980   -7.2670   -3.7020 n4        1 MOL     -0.219055
     28 H8          0.0220   -2.8890    0.8690 hn        1 MOL      0.210528
     29 H9         -0.1380   -5.7320    0.8480 h1        1 MOL      0.105868
     30 H10        -0.7680   -3.8660   -1.5070 hc        1 MOL      0.096224
     31 H11        -1.8120   -4.0490   -0.0740 hc        1 MOL      0.096224
     32 H12        -1.9860   -6.3690   -0.2760 hc        1 MOL      0.091175
     33 H13        -1.2190   -6.5580   -1.7100 hc        1 MOL      0.091175
     34 H14        -2.9350   -4.7470   -2.7470 hc        1 MOL      0.086611
     35 H15        -3.8530   -5.1040   -1.3760 hc        1 MOL      0.086611
     36 H16        -4.6640   -6.2330   -3.2840 hx        1 MOL      0.156686
     37 H17        -4.1160   -7.4010   -1.9970 hx        1 MOL      0.156686
     38 H18        -3.2920   -7.8640   -4.4200 hn        1 MOL      0.294514
     39 H19        -2.3870   -6.5390   -4.1730 hn        1 MOL      0.294514
     40 H20        -2.1930   -7.7730   -3.1790 hn        1 MOL      0.294514
     41 N4          2.4050   -4.3660   -0.7680 n         1 MOL     -0.188778
     42 C13         3.6600   -4.6820   -1.3780 c3        1 MOL     -0.016538
     43 C14         4.9420   -4.2390   -0.6180 c         1 MOL      0.384442
     44 O6          6.1310   -4.5280   -0.9870 o         1 MOL     -0.518380
     45 C15         3.6980   -4.1930   -2.8990 c3        1 MOL     -0.301388
     46 C16         3.3850   -2.6940   -3.1050 c         1 MOL      0.861058
     47 O7          3.2560   -1.8790   -2.1470 o         1 MOL     -0.768148
     48 O8          3.1260   -2.2330   -4.2550 o         1 MOL     -0.768148
     49 H21         2.3590   -3.4600   -0.3290 hn        1 MOL      0.103635
     50 H22         3.7110   -5.7700   -1.4260 h1        1 MOL      0.124317
     51 H23         2.8730   -4.6340   -3.4610 hc        1 MOL      0.085314
     52 H24         4.6880   -4.4650   -3.2760 hc        1 MOL      0.085314
     53 N5          4.7590   -3.5200    0.4930 n         1 MOL     -0.178718
     54 C17         5.8570   -3.0200    1.3510 c3        1 MOL     -0.088490
     55 C18         6.5260   -1.7720    0.7650 c         1 MOL      0.604299
     56 O9          7.6080   -1.5090    1.1900 o         1 MOL     -0.586444
     57 H25         3.8640   -3.0860    0.6630 hn        1 MOL      0.096166
     58 H26         6.5930   -3.7910    1.5470 h1        1 MOL      0.080134
     59 H27         5.4430   -2.6330    2.2780 h1        1 MOL      0.080134
     60 N6          5.9530   -1.1870   -0.2560 n         1 MOL     -0.262656
     61 C19         6.5400   -0.0090   -0.9480 c3        1 MOL     -0.173536
     62 C20         6.5770    1.3110   -0.0720 c         1 MOL      0.439870
     63 O10         7.0430    2.3460   -0.5290 o         1 MOL     -0.530470
     64 C21         5.7950    0.2380   -2.2450 c3        1 MOL     -0.204041
     65 C22         4.4650    0.9510   -2.1360 c         1 MOL      0.608059
     66 N7          4.0110    1.5910   -3.1510 n         1 MOL     -0.797748
     67 O11         3.7490    0.8010   -1.1270 o         1 MOL     -0.524328
     68 H28         4.9500   -1.2660   -0.2090 hn        1 MOL      0.239872
     69 H29         7.5210   -0.2760   -1.3560 h1        1 MOL      0.166920
     70 H30         5.5480   -0.7340   -2.6630 hc        1 MOL      0.105630
     71 H31         6.3990    0.8520   -2.9120 hc        1 MOL      0.105630
     72 H32         4.5310    1.7070   -4.0050 hn        1 MOL      0.389311
     73 H33         3.0920    2.0030   -3.0580 hn        1 MOL      0.389311
     74 N8          6.0100    1.2790    1.1240 n         1 MOL     -0.127086
     75 C23         5.8950    2.3870    2.1170 c3        1 MOL     -0.409742
     76 C24         4.5500    3.2000    2.0450 c         1 MOL      0.673818
     77 O12         4.3700    4.0800    2.8800 o         1 MOL     -0.578830
     78 H34         5.3910    0.5050    1.3320 hn        1 MOL      0.219761
     79 H35         6.7350    3.0770    2.0200 h1        1 MOL      0.175453
     80 H36         5.8840    1.8200    3.0510 h1        1 MOL      0.175453
     81 N9          3.5850    2.8530    1.1230 n         1 MOL     -0.337297
     82 C25         2.3420    3.6730    1.0560 c3        1 MOL      0.301678
     83 C26         1.0620    2.7420    1.1220 c         1 MOL      0.283035
     84 O13         1.1480    1.5630    0.6320 o         1 MOL     -0.470088
     85 C27         2.2670    4.4820   -0.2270 c3        1 MOL     -0.018304
     86 C28         3.4720    5.3210   -0.6090 ca        1 MOL     -0.080813
     87 C29         3.4970    6.7090   -0.2850 ca        1 MOL     -0.078855
     88 C30         4.4600    4.7090   -1.4600 ca        1 MOL     -0.078855
     89 C31         4.5510    7.4870   -0.8240 ca        1 MOL     -0.374034
     90 C32         5.5190    5.5180   -1.9440 ca        1 MOL     -0.374034
     91 C33         5.5750    6.8400   -1.5670 ca        1 MOL      0.466586
     92 O14         6.5710    7.6320   -1.9740 oh        1 MOL     -0.495455
     93 H37         3.7240    1.9610    0.6680 hn        1 MOL      0.095607
     94 H38         2.3270    4.3020    1.9450 h1        1 MOL      0.008867
     95 H39         1.4020    5.1270   -0.0580 hc        1 MOL      0.002514
     96 H40         2.0670    3.8390   -1.0860 hc        1 MOL      0.002514
     97 H41         2.7140    7.2110    0.2650 ha        1 MOL      0.138774
     98 H42         4.3720    3.6440   -1.6510 ha        1 MOL      0.138774
     99 H43         4.4790    8.5600   -0.7620 ha        1 MOL      0.176679
    100 H44         6.3710    5.0690   -2.4350 ha        1 MOL      0.176679
    101 H45         7.1320    7.0640   -2.5050 ho        1 MOL      0.352718
    102 N10        -0.0750    3.1780    1.6960 n         1 MOL     -0.285718
    103 C34        -1.3950    2.5980    1.5230 c3        1 MOL     -0.165144
    104 C35        -2.4150    3.5070    0.8210 c         1 MOL      0.554169
    105 O15        -2.4860    4.7230    1.1400 o         1 MOL     -0.546144
    106 C36        -1.9360    1.8580    2.8020 c3        1 MOL      0.319974
    107 C37        -2.1820    2.8300    3.8970 c3        1 MOL     -0.199781
    108 C38        -0.8700    0.7890    3.2480 c3        1 MOL     -0.409569
    109 C39        -2.7870    2.2700    5.2050 c3        1 MOL     -0.134719
    110 H46         0.0200    4.0750    2.1430 hn        1 MOL      0.257720
    111 H47        -1.3210    1.6800    0.9430 h1        1 MOL      0.151410
    112 H48        -2.8970    1.3790    2.6290 hc        1 MOL     -0.076931
    113 H49        -2.8400    3.5810    3.4480 hc        1 MOL      0.060696
    114 H50        -1.2090    3.2470    4.1840 hc        1 MOL      0.060696
    115 H51        -1.3750    0.1000    3.9260 hc        1 MOL      0.125662
    116 H52        -0.5470    0.1920    2.3950 hc        1 MOL      0.125662
    117 H53         0.0240    1.2860    3.6240 hc        1 MOL      0.125662
    118 H54        -3.7040    1.8210    4.8520 hc        1 MOL      0.045917
    119 H55        -2.1880    1.4610    5.6270 hc        1 MOL      0.045917
    120 H56        -3.2160    2.9700    5.9300 hc        1 MOL      0.045917
    121 N11        -3.2520    3.0620   -0.1370 n         1 MOL     -0.353735
    122 C40        -4.3850    3.7490   -0.7420 c3        1 MOL      0.175763
    123 C41        -5.7820    3.3200   -0.3100 c         1 MOL      0.427637
    124 O16        -5.9220    2.4280    0.4960 o         1 MOL     -0.376680
    125 C42        -4.2500    3.5380   -2.2440 c3        1 MOL     -0.220719
    126 O17        -4.7020    2.1970   -2.4930 oh        1 MOL     -0.439293
    127 H57        -3.3810    2.0620   -0.2370 hn        1 MOL      0.118391
    128 H58        -4.3370    4.8160   -0.5200 h1        1 MOL      0.065875
    129 H59        -3.2400    3.7390   -2.6100 h1        1 MOL      0.122071
    130 H60        -4.9600    4.1400   -2.8060 h1        1 MOL      0.122071
    131 H61        -4.0780    1.8540   -3.1390 ho        1 MOL      0.375980
    132 N12        -6.9060    3.8670   -0.8890 n         1 MOL     -0.518048
    133 C43        -8.2190    3.3910   -0.6850 c3        1 MOL      0.286577
    134 C44        -8.3010    1.8950   -1.0270 c         1 MOL      0.330870
    135 O18        -8.8960    1.0770   -0.2920 o         1 MOL     -0.498748
    136 C45        -9.1180    4.1670   -1.6100 c3        1 MOL     -0.289705
    137 H62        -6.7670    4.6790   -1.4770 hn        1 MOL      0.284673
    138 H63        -8.5960    3.4910    0.3270 h1        1 MOL      0.039913
    139 H64       -10.0920    4.0670   -1.1220 hc        1 MOL      0.084653
    140 H65        -8.9670    5.2500   -1.5880 hc        1 MOL      0.084653
    141 H66        -9.1830    3.7540   -2.6080 hc        1 MOL      0.084653
    142 N13        -7.6440    1.4440   -2.0930 n         1 MOL     -0.249926
    143 C46        -7.6510   -0.0280   -2.4110 c3        1 MOL      0.046288
    144 C47        -6.9860   -0.8830   -1.2810 c         1 MOL      0.299251
    145 O19        -7.3950   -2.0750   -1.0500 o         1 MOL     -0.514754
    146 C48        -6.7560   -0.3680   -3.6780 c3        1 MOL     -0.414847
    147 H67        -7.1270    2.0090   -2.7570 hn        1 MOL      0.223176
    148 H68        -8.6690   -0.4090   -2.5510 h1        1 MOL      0.116454
    149 H69        -5.6970   -0.1880   -3.4820 hc        1 MOL      0.112687
    150 H70        -6.8040   -1.4370   -3.8590 hc        1 MOL      0.112687
    151 H71        -7.1550    0.1580   -4.5510 hc        1 MOL      0.112687
    152 N14        -5.8760   -0.4270   -0.7410 n         1 MOL     -0.075161
    153 C49        -5.2210   -1.0840    0.3930 c3        1 MOL     -0.127781
    154 C50        -5.8640   -1.0140    1.8360 c         1 MOL      0.432091
    155 O20        -5.7990   -2.0240    2.5680 o         1 MOL     -0.516505
    156 C51        -3.7090   -0.7030    0.3230 c3        1 MOL      0.136786
    157 C52        -2.9140   -1.1750   -0.9050 c3        1 MOL      0.030746
    158 C53        -1.5000   -0.6460   -0.6540 c         1 MOL      0.565573
    159 O21        -1.1060    0.3840   -1.2510 o         1 MOL     -0.704215
    160 O22        -0.5550   -1.3720   -0.1780 o         1 MOL     -0.704215
    161 H72        -5.6250    0.5170   -0.9910 hn        1 MOL      0.258824
    162 H73        -5.2300   -2.1560    0.2220 h1        1 MOL      0.101425
    163 H74        -3.3010   -1.0390    1.2810 hc        1 MOL      0.019264
    164 H75        -3.6790    0.3840    0.3790 hc        1 MOL      0.019264
    165 H76        -3.4110   -0.7580   -1.7740 hc        1 MOL     -0.065396
    166 H77        -2.8830   -2.2560   -1.0350 hc        1 MOL     -0.065396
    167 N15        -6.5900    0.0750    2.1700 n         1 MOL     -0.059584
    168 C54        -7.3440    0.0140    3.3870 c3        1 MOL     -0.323574
    169 H78        -6.9860    0.7800    4.0750 h1        1 MOL      0.119286
    170 H79        -8.3990    0.1840    3.1710 h1        1 MOL      0.119286
    171 H80        -7.2200   -0.9690    3.8440 h1        1 MOL      0.119286
    172 H81        -6.3930    0.9370    1.6730 hn        1 MOL      0.126542
    173 Ca1         1.4560   -0.2500   -1.2890 Ca        1 MOL      1.804599
    174 O23         0.9990   -0.9590   -3.6750 oh        1 MOL     -0.944328
    175 H82         1.8000   -1.3460   -4.0440 ho        1 MOL      0.440578
    176 H83         0.4600   -0.7620   -4.4390 ho        1 MOL      0.440578
    177 O24         1.0560    2.0580   -2.6860 oh        1 MOL     -0.944328
    178 H84         0.3050    2.5060   -2.2790 ho        1 MOL      0.440578
    179 H85         0.9990    2.3080   -3.6080 ho        1 MOL      0.440578
@<TRIPOS>BOND
     1    1    2 1   
     2    1    4 1   
     3    1    5 1   
     4    1    6 1   
     5    2    3 2   
     6    2    7 1   
     7    7    8 1   
     8    7   15 1   
     9    8    9 1   
    10    8   11 1   
    11    8   16 1   
    12    9   10 2   
    13    9   19 1   
    14   11   12 1   
    15   11   17 1   
    16   11   18 1   
    17   12   13 1   
    18   12   14 1   
    19   19   20 1   
    20   19   28 1   
    21   20   21 1   
    22   20   23 1   
    23   20   29 1   
    24   21   22 2   
    25   21   41 1   
    26   23   24 1   
    27   23   30 1   
    28   23   31 1   
    29   24   25 1   
    30   24   32 1   
    31   24   33 1   
    32   25   26 1   
    33   25   34 1   
    34   25   35 1   
    35   26   27 1   
    36   26   36 1   
    37   26   37 1   
    38   27   38 1   
    39   27   39 1   
    40   27   40 1   
    41   41   42 1   
    42   41   49 1   
    43   42   43 1   
    44   42   45 1   
    45   42   50 1   
    46   43   44 2   
    47   43   53 1   
    48   45   46 1   
    49   45   51 1   
    50   45   52 1   
    51   46   47 1   
    52   46   48 1   
    53   53   54 1   
    54   53   57 1   
    55   54   55 1   
    56   54   58 1   
    57   54   59 1   
    58   55   56 2   
    59   55   60 1   
    60   60   61 1   
    61   60   68 1   
    62   61   62 1   
    63   61   64 1   
    64   61   69 1   
    65   62   63 2   
    66   62   74 1   
    67   64   65 1   
    68   64   70 1   
    69   64   71 1   
    70   65   66 1   
    71   65   67 2   
    72   66   72 1   
    73   66   73 1   
    74   74   75 1   
    75   74   78 1   
    76   75   76 1   
    77   75   79 1   
    78   75   80 1   
    79   76   77 2   
    80   76   81 1   
    81   81   82 1   
    82   81   93 1   
    83   82   83 1   
    84   82   85 1   
    85   82   94 1   
    86   83   84 2   
    87   83  102 1   
    88   85   86 1   
    89   85   95 1   
    90   85   96 1   
    91   86   87 ar  
    92   86   88 ar  
    93   87   89 ar  
    94   87   97 1   
    95   88   90 ar  
    96   88   98 1   
    97   89   91 ar  
    98   89   99 1   
    99   90   91 ar  
   100   90  100 1   
   101   91   92 1   
   102   92  101 1   
   103  102  103 1   
   104  102  110 1   
   105  103  104 1   
   106  103  106 1   
   107  103  111 1   
   108  104  105 2   
   109  104  121 1   
   110  106  107 1   
   111  106  108 1   
   112  106  112 1   
   113  107  109 1   
   114  107  113 1   
   115  107  114 1   
   116  108  115 1   
   117  108  116 1   
   118  108  117 1   
   119  109  118 1   
   120  109  119 1   
   121  109  120 1   
   122  121  122 1   
   123  121  127 1   
   124  122  123 1   
   125  122  125 1   
   126  122  128 1   
   127  123  124 2   
   128  123  132 1   
   129  125  126 1   
   130  125  129 1   
   131  125  130 1   
   132  126  131 1   
   133  132  133 1   
   134  132  137 1   
   135  133  134 1   
   136  133  136 1   
   137  133  138 1   
   138  134  135 2   
   139  134  142 1   
   140  136  139 1   
   141  136  140 1   
   142  136  141 1   
   143  142  143 1   
   144  142  147 1   
   145  143  144 1   
   146  143  146 1   
   147  143  148 1   
   148  144  145 2   
   149  144  152 1   
   150  146  149 1   
   151  146  150 1   
   152  146  151 1   
   153  152  153 1   
   154  152  161 1   
   155  153  154 1   
   156  153  156 1   
   157  153  162 1   
   158  154  155 2   
   159  154  167 1   
   160  156  157 1   
   161  156  163 1   
   162  156  164 1   
   163  157  158 1   
   164  157  165 1   
   165  157  166 1   
   166  158  159 1   
   167  158  160 1   
   168  167  168 1   
   169  167  172 1   
   170  168  169 1   
   171  168  170 1   
   172  168  171 1   
   173  174  175 1   
   174  174  176 1   
   175  177  178 1   
   176  177  179 1   
@<TRIPOS>SUBSTRUCTURE
     1 MOL         1 TEMP              0 ****  ****    0 ROOT
