@<TRIPOS>MOLECULE
MOL
  189   185     1     0     0
SMALL
resp


@<TRIPOS>ATOM
      1 C1         -0.0480    1.4950    5.8840 c3        1 MOL     -0.244043
      2 C2         -0.6360    1.3030    4.5050 c         1 MOL      0.676264
      3 O1          0.0400    1.7930    3.5750 o         1 MOL     -0.614510
      4 H1          0.9380    1.9490    5.7970 hc        1 MOL      0.065299
      5 H2         -0.6970    2.1460    6.4680 hc        1 MOL      0.065299
      6 H3          0.0390    0.5270    6.3800 hc        1 MOL      0.065299
      7 N1         -1.7970    0.6000    4.3140 n         1 MOL     -0.539622
      8 C3         -2.4940    0.7430    3.0260 c3        1 MOL      0.191020
      9 C4         -2.9550    2.2290    2.8300 c         1 MOL      0.316000
     10 O2         -4.0260    2.6500    3.3040 o         1 MOL     -0.516546
     11 C5         -3.6880   -0.2570    2.8850 c3        1 MOL     -0.202831
     12 C6         -4.3680   -0.1050    1.6070 c         1 MOL      0.868768
     13 O3         -5.6020   -0.1680    1.6110 o         1 MOL     -0.706056
     14 O4         -3.6890   -0.0600    0.5830 o         1 MOL     -0.706056
     15 H4         -2.2870    0.1190    5.0560 hn        1 MOL      0.317891
     16 H5         -1.7570    0.5810    2.2320 h1        1 MOL     -0.036813
     17 H6         -4.4210   -0.3420    3.6970 hc        1 MOL      0.046894
     18 H7         -3.1660   -1.2130    2.9420 hc        1 MOL      0.046894
     19 N2         -2.1950    3.0080    2.0510 n         1 MOL     -0.078694
     20 C7         -2.3260    4.4940    1.9330 c3        1 MOL     -0.208818
     21 C8         -3.2290    4.9390    0.7730 c         1 MOL      0.483346
     22 O5         -3.5910    6.0990    0.7270 o         1 MOL     -0.569552
     23 C9         -0.9460    5.1400    1.9660 c3        1 MOL     -0.201182
     24 C10        -0.2140    4.8620    0.6670 c3        1 MOL      0.165262
     25 C11         1.2260    5.4950    0.5930 c3        1 MOL     -0.228492
     26 C12         1.0940    6.9710    0.7940 c3        1 MOL      0.060157
     27 N3          0.6760    7.5770   -0.4710 n4        1 MOL     -0.375080
     28 H8         -1.3550    2.5400    1.7390 hn        1 MOL      0.320712
     29 H9         -2.8210    4.8380    2.8510 h1        1 MOL      0.141791
     30 H10        -0.3150    4.8840    2.8210 hc        1 MOL      0.102111
     31 H11        -1.0930    6.2260    1.9300 hc        1 MOL      0.102111
     32 H12        -0.8640    4.9320   -0.2020 hc        1 MOL     -0.054572
     33 H13         0.0200    3.8200    0.8570 hc        1 MOL     -0.054572
     34 H14         1.6610    5.2640   -0.3720 hc        1 MOL      0.096952
     35 H15         1.7510    4.9600    1.3820 hc        1 MOL      0.096952
     36 H16         2.0970    7.3600    0.9590 hx        1 MOL      0.072079
     37 H17         0.3720    7.2250    1.5760 hx        1 MOL      0.072079
     38 H18         1.3260    7.3420   -1.2080 hn        1 MOL      0.331219
     39 H19        -0.2080    7.2050   -0.7870 hn        1 MOL      0.331219
     40 H20         0.5630    8.5750   -0.3240 hn        1 MOL      0.331219
     41 N4         -3.5660    4.0550   -0.1870 n         1 MOL     -0.103407
     42 C13        -4.4350    4.3430   -1.3810 c3        1 MOL      0.101782
     43 C14        -5.7960    3.6330   -1.2940 c         1 MOL      0.413821
     44 O6         -6.8170    4.0010   -1.8670 o         1 MOL     -0.527886
     45 C15        -3.6410    4.2550   -2.6820 c3        1 MOL     -0.141332
     46 C16        -2.6310    3.1160   -2.8330 c         1 MOL      0.764357
     47 O7         -2.7920    2.0940   -2.0840 o         1 MOL     -0.716944
     48 O8         -1.7830    2.9920   -3.7620 o         1 MOL     -0.716944
     49 H21        -3.0750    3.1800   -0.0800 hn        1 MOL      0.032480
     50 H22        -4.7840    5.3790   -1.3190 h1        1 MOL      0.047974
     51 H23        -3.0340    5.1490   -2.8120 hc        1 MOL      0.021273
     52 H24        -4.4350    4.1680   -3.4290 hc        1 MOL      0.021273
     53 N5         -5.8030    2.6450   -0.4270 n         1 MOL     -0.177715
     54 C17        -7.0390    1.9320   -0.0210 c3        1 MOL     -0.130283
     55 C18        -7.4540    0.7180   -0.9140 c         1 MOL      0.519830
     56 O9         -8.6490    0.5340   -1.1490 o         1 MOL     -0.558857
     57 H25        -4.9500    2.5270    0.0930 hn        1 MOL      0.140407
     58 H26        -7.9180    2.5840   -0.0070 h1        1 MOL      0.095004
     59 H27        -6.9090    1.6160    1.0210 h1        1 MOL      0.095004
     60 N6         -6.5000    0.0470   -1.5100 n         1 MOL     -0.121718
     61 C19        -6.8170   -1.1520   -2.2450 c3        1 MOL     -0.071228
     62 C20        -6.9510   -2.3270   -1.3180 c         1 MOL      0.343885
     63 O10        -7.6900   -3.2560   -1.7230 o         1 MOL     -0.519664
     64 C21        -5.8230   -1.5480   -3.3250 c3        1 MOL     -0.125754
     65 C22        -4.3790   -1.3480   -2.9080 c         1 MOL      0.556189
     66 O11        -3.8450   -2.0420   -2.0530 o         1 MOL     -0.613217
     67 O12        -3.8250   -0.2480   -3.1890 o         1 MOL     -0.613217
     68 H28        -5.5330    0.2260   -1.2890 hn        1 MOL      0.085086
     69 H29        -7.7530   -1.0800   -2.7890 h1        1 MOL      0.143127
     70 H30        -5.9620   -1.0240   -4.2740 hc        1 MOL      0.056666
     71 H31        -5.8950   -2.6040   -3.5890 hc        1 MOL      0.056666
     72 N7         -6.4570   -2.3100   -0.0590 n         1 MOL     -0.025752
     73 C23        -6.3440   -3.3940    0.8900 c3        1 MOL     -0.202114
     74 C24        -5.1590   -4.3460    0.5950 c         1 MOL      0.556637
     75 O13        -5.2120   -5.5110    0.9530 o         1 MOL     -0.565128
     76 H32        -5.9770   -1.4780    0.2240 hn        1 MOL      0.117668
     77 H33        -7.3290   -3.8510    0.8010 h1        1 MOL      0.103948
     78 H34        -6.2800   -2.9320    1.8760 h1        1 MOL      0.103948
     79 N8         -3.9830   -3.8680    0.1410 n         1 MOL     -0.220781
     80 C25        -2.6550   -4.6180   -0.0160 c3        1 MOL     -0.138023
     81 C26        -1.4890   -3.6620    0.2410 c         1 MOL      0.555367
     82 O14        -1.7070   -2.4490    0.1830 o         1 MOL     -0.569525
     83 C27        -2.4990   -5.3300   -1.3730 c3        1 MOL      0.485448
     84 C28        -3.0390   -6.6950   -1.4030 c3        1 MOL     -0.363965
     85 O15        -3.1380   -4.6570   -2.4580 oh        1 MOL     -0.638600
     86 H35        -3.9720   -2.9020   -0.1540 hn        1 MOL      0.096284
     87 H36        -2.5670   -5.3200    0.8020 h1        1 MOL      0.097883
     88 H37        -1.4240   -5.3590   -1.5570 h1        1 MOL     -0.042276
     89 H38        -3.6080   -3.9080   -2.1040 ho        1 MOL      0.405679
     90 H39        -2.7390   -7.1310   -2.3620 hc        1 MOL      0.086085
     91 H40        -2.6430   -7.3220   -0.6040 hc        1 MOL      0.086085
     92 H41        -4.1120   -6.6180   -1.2560 hc        1 MOL      0.086085
     93 N9         -0.3710   -4.1630    0.7590 n         1 MOL     -0.506773
     94 C29         0.7360   -3.2900    1.2270 c3        1 MOL      0.128720
     95 C30         1.9640   -3.5000    0.2720 c         1 MOL      0.372366
     96 O16         2.4400   -4.6260    0.1540 o         1 MOL     -0.523314
     97 C31         1.1300   -3.7480    2.6900 c3        1 MOL      0.046213
     98 C32         0.0660   -3.2350    3.7260 c3        1 MOL      0.044770
     99 C33         2.5880   -3.3850    3.1010 c3        1 MOL      0.069853
    100 C34         0.3430   -3.7330    5.1510 c3        1 MOL     -0.162909
    101 H42        -0.2460   -5.1490    0.8990 hn        1 MOL      0.297452
    102 H43         0.4690   -2.2300    1.2040 h1        1 MOL      0.092723
    103 H44         1.1090   -4.8380    2.7340 hc        1 MOL      0.004357
    104 H45        -0.8960   -3.6160    3.3770 hc        1 MOL     -0.007400
    105 H46         0.0120   -2.1490    3.7060 hc        1 MOL     -0.007400
    106 H47         3.2610   -3.9780    2.4880 hc        1 MOL     -0.031364
    107 H48         2.8220   -2.3230    3.0670 hc        1 MOL     -0.031364
    108 H49         2.7730   -3.7430    4.1170 hc        1 MOL     -0.031364
    109 H50         0.5320   -4.7950    5.2780 hc        1 MOL      0.040387
    110 H51         1.1120   -3.1120    5.6050 hc        1 MOL      0.040387
    111 H52        -0.5520   -3.6390    5.7710 hc        1 MOL      0.040387
    112 N10         2.4140   -2.4550   -0.4780 n         1 MOL     -0.151821
    113 C35         3.5760   -2.4340   -1.3420 c3        1 MOL     -0.088410
    114 C36         4.8840   -2.2490   -0.5390 c         1 MOL      0.326083
    115 O17         4.8700   -1.8970    0.6190 o         1 MOL     -0.210515
    116 C37         3.4750   -1.3300   -2.4830 c3        1 MOL      0.072135
    117 C38         2.2430   -1.5650   -3.4480 c3        1 MOL     -0.219645
    118 O18         3.5160   -0.0840   -1.8830 oh        1 MOL     -0.501800
    119 H53         1.8000   -1.6550   -0.4830 hn        1 MOL      0.176620
    120 H54         3.6170   -3.3890   -1.8570 h1        1 MOL      0.092608
    121 H55         4.3670   -1.4240   -3.1180 h1        1 MOL      0.076088
    122 H56         2.6320    0.0010   -1.5030 ho        1 MOL      0.358627
    123 H57         2.3730   -2.5580   -3.8890 hc        1 MOL      0.085718
    124 H58         1.2690   -1.6550   -2.9660 hc        1 MOL      0.085718
    125 H59         2.2790   -0.9140   -4.3160 hc        1 MOL      0.085718
    126 N11         6.0630   -2.4480   -1.2290 n         1 MOL     -0.388666
    127 C39         7.3870   -2.0680   -0.7580 c3        1 MOL     -0.022477
    128 C40         7.3540   -0.6910   -0.1000 c         1 MOL      0.155676
    129 O19         8.0020   -0.4840    0.9610 o         1 MOL     -0.470405
    130 C41         8.4540   -2.0840   -1.8250 c3        1 MOL      0.291156
    131 C42         8.7560   -3.4700   -2.3050 c3        1 MOL     -0.566226
    132 O20         7.9980   -1.2390   -2.8310 oh        1 MOL     -0.599805
    133 H60         5.9970   -2.8470   -2.1500 hn        1 MOL      0.270001
    134 H61         7.7200   -2.7990   -0.0310 h1        1 MOL      0.119889
    135 H62         9.2390   -1.5320   -1.3080 h1        1 MOL      0.024209
    136 H63         8.7610   -0.8700   -3.2700 ho        1 MOL      0.362543
    137 H64         8.8690   -4.0810   -1.4070 hc        1 MOL      0.170760
    138 H65         7.9080   -3.7670   -2.9210 hc        1 MOL      0.170760
    139 H66         9.6490   -3.5940   -2.9250 hc        1 MOL      0.170760
    140 N12         6.5490    0.2560   -0.6150 n         1 MOL      0.303758
    141 C43         6.5810    1.6150   -0.0800 c3        1 MOL     -0.000342
    142 C44         5.8270    1.6340    1.2360 c         1 MOL      0.206207
    143 O21         6.3940    2.1100    2.2450 o         1 MOL     -0.461872
    144 C45         5.8990    2.6530   -1.0380 c3        1 MOL     -0.219555
    145 C46         6.3230    2.6070   -2.5320 c3        1 MOL      0.014477
    146 C47         7.8080    2.5870   -2.7510 c3        1 MOL     -0.010495
    147 C48         8.2320    2.6280   -4.2240 c3        1 MOL     -0.062212
    148 N13         9.6760    2.4480   -4.5040 n4        1 MOL     -0.319544
    149 H67         5.9810    0.0280   -1.4180 hn        1 MOL      0.089559
    150 H68         7.6040    1.9800    0.0170 h1        1 MOL      0.048014
    151 H69         6.1320    3.6250   -0.5840 hc        1 MOL      0.085279
    152 H70         4.8100    2.6310   -1.0160 hc        1 MOL      0.085279
    153 H71         5.8820    3.4520   -3.0630 hc        1 MOL      0.008748
    154 H72         5.7870    1.7040   -2.8310 hc        1 MOL      0.008748
    155 H73         8.1120    1.6730   -2.2460 hc        1 MOL      0.032657
    156 H74         8.2180    3.4200   -2.1750 hc        1 MOL      0.032657
    157 H75         7.9860    3.6260   -4.5840 hx        1 MOL      0.109390
    158 H76         7.5620    1.9100   -4.6920 hx        1 MOL      0.109390
    159 H77         9.9360    2.4830   -5.4840 hn        1 MOL      0.297348
    160 H78        10.2100    3.1930   -4.1000 hn        1 MOL      0.297348
    161 H79         9.9590    1.5080   -4.2470 hn        1 MOL      0.297348
    162 N14         4.6990    0.9180    1.3280 n         1 MOL     -0.006424
    163 C49         3.8090    0.8680    2.4720 c3        1 MOL     -0.122265
    164 C50         4.4870    0.0180    3.5880 c         1 MOL      0.419149
    165 O22         4.5690    0.5090    4.6920 o         1 MOL     -0.539556
    166 C51         2.4170    0.3100    1.9470 c3        1 MOL      0.166583
    167 C52         1.7370    1.3470    1.0540 c3        1 MOL     -0.199669
    168 C53         0.5620    0.7020    0.3730 c         1 MOL      0.987275
    169 O23         0.7200   -0.2920   -0.3930 o         1 MOL     -0.867984
    170 O24        -0.5380    1.3120    0.2770 o         1 MOL     -0.867984
    171 H80         4.4080    0.4890    0.4660 hn        1 MOL      0.031119
    172 H81         3.6660    1.8890    2.8430 h1        1 MOL      0.110200
    173 H82         1.8040   -0.0230    2.7940 hc        1 MOL     -0.021320
    174 H83         2.5720   -0.5470    1.2960 hc        1 MOL     -0.021320
    175 H84         2.4110    1.7250    0.2940 hc        1 MOL      0.042846
    176 H85         1.3670    2.1670    1.6680 hc        1 MOL      0.042846
    177 N15         5.0730   -1.1500    3.2940 n         1 MOL      0.077538
    178 C54         5.8760   -1.9210    4.2050 c3        1 MOL     -0.318496
    179 H86         6.9310   -1.7520    3.9910 h1        1 MOL      0.105307
    180 H87         5.6600   -1.6150    5.2290 h1        1 MOL      0.105307
    181 H88         5.6470   -2.9800    4.0860 h1        1 MOL      0.105307
    182 H89         5.0350   -1.4960    2.3440 hn        1 MOL      0.016609
    183 Ca1        -1.9710   -0.1880   -1.3680 Ca        1 MOL      1.804006
    184 O25        -0.5570    0.7570   -3.6380 oh        1 MOL     -0.871057
    185 H90        -0.9360    1.6390   -3.6040 ho        1 MOL      0.397205
    186 H91         0.0990    0.8110   -4.3310 ho        1 MOL      0.397205
    187 O26        -1.1780   -2.2120   -2.9990 oh        1 MOL     -0.871057
    188 H92        -0.7230   -2.4490   -3.8080 ho        1 MOL      0.397205
    189 H93        -1.7700   -2.9460   -2.8250 ho        1 MOL      0.397205
@<TRIPOS>BOND
     1    1    2 1   
     2    1    4 1   
     3    1    5 1   
     4    1    6 1   
     5    2    3 2   
     6    2    7 1   
     7    7    8 1   
     8    7   15 1   
     9    8    9 1   
    10    8   11 1   
    11    8   16 1   
    12    9   10 2   
    13    9   19 1   
    14   11   12 1   
    15   11   17 1   
    16   11   18 1   
    17   12   13 1   
    18   12   14 1   
    19   19   20 1   
    20   19   28 1   
    21   20   21 1   
    22   20   23 1   
    23   20   29 1   
    24   21   22 2   
    25   21   41 1   
    26   23   24 1   
    27   23   30 1   
    28   23   31 1   
    29   24   25 1   
    30   24   32 1   
    31   24   33 1   
    32   25   26 1   
    33   25   34 1   
    34   25   35 1   
    35   26   27 1   
    36   26   36 1   
    37   26   37 1   
    38   27   38 1   
    39   27   39 1   
    40   27   40 1   
    41   41   42 1   
    42   41   49 1   
    43   42   43 1   
    44   42   45 1   
    45   42   50 1   
    46   43   44 2   
    47   43   53 1   
    48   45   46 1   
    49   45   51 1   
    50   45   52 1   
    51   46   47 1   
    52   46   48 1   
    53   53   54 1   
    54   53   57 1   
    55   54   55 1   
    56   54   58 1   
    57   54   59 1   
    58   55   56 2   
    59   55   60 1   
    60   60   61 1   
    61   60   68 1   
    62   61   62 1   
    63   61   64 1   
    64   61   69 1   
    65   62   63 2   
    66   62   72 1   
    67   64   65 1   
    68   64   70 1   
    69   64   71 1   
    70   65   66 1   
    71   65   67 1   
    72   72   73 1   
    73   72   76 1   
    74   73   74 1   
    75   73   77 1   
    76   73   78 1   
    77   74   75 2   
    78   74   79 1   
    79   79   80 1   
    80   79   86 1   
    81   80   81 1   
    82   80   83 1   
    83   80   87 1   
    84   81   82 2   
    85   81   93 1   
    86   83   84 1   
    87   83   85 1   
    88   83   88 1   
    89   84   90 1   
    90   84   91 1   
    91   84   92 1   
    92   85   89 1   
    93   93   94 1   
    94   93  101 1   
    95   94   95 1   
    96   94   97 1   
    97   94  102 1   
    98   95   96 2   
    99   95  112 1   
   100   97   98 1   
   101   97   99 1   
   102   97  103 1   
   103   98  100 1   
   104   98  104 1   
   105   98  105 1   
   106   99  106 1   
   107   99  107 1   
   108   99  108 1   
   109  100  109 1   
   110  100  110 1   
   111  100  111 1   
   112  112  113 1   
   113  112  119 1   
   114  113  114 1   
   115  113  116 1   
   116  113  120 1   
   117  114  115 2   
   118  114  126 1   
   119  116  117 1   
   120  116  118 1   
   121  116  121 1   
   122  117  123 1   
   123  117  124 1   
   124  117  125 1   
   125  118  122 1   
   126  126  127 1   
   127  126  133 1   
   128  127  128 1   
   129  127  130 1   
   130  127  134 1   
   131  128  129 2   
   132  128  140 1   
   133  130  131 1   
   134  130  132 1   
   135  130  135 1   
   136  131  137 1   
   137  131  138 1   
   138  131  139 1   
   139  132  136 1   
   140  140  141 1   
   141  140  149 1   
   142  141  142 1   
   143  141  144 1   
   144  141  150 1   
   145  142  143 2   
   146  142  162 1   
   147  144  145 1   
   148  144  151 1   
   149  144  152 1   
   150  145  146 1   
   151  145  153 1   
   152  145  154 1   
   153  146  147 1   
   154  146  155 1   
   155  146  156 1   
   156  147  148 1   
   157  147  157 1   
   158  147  158 1   
   159  148  159 1   
   160  148  160 1   
   161  148  161 1   
   162  162  163 1   
   163  162  171 1   
   164  163  164 1   
   165  163  166 1   
   166  163  172 1   
   167  164  165 2   
   168  164  177 1   
   169  166  167 1   
   170  166  173 1   
   171  166  174 1   
   172  167  168 1   
   173  167  175 1   
   174  167  176 1   
   175  168  169 1   
   176  168  170 1   
   177  177  178 1   
   178  177  182 1   
   179  178  179 1   
   180  178  180 1   
   181  178  181 1   
   182  184  185 1   
   183  184  186 1   
   184  187  188 1   
   185  187  189 1   
@<TRIPOS>SUBSTRUCTURE
     1 MOL         1 TEMP              0 ****  ****    0 ROOT
