@<TRIPOS>MOLECULE
MOL
  186   183     1     0     0
SMALL
resp


@<TRIPOS>ATOM
      1 C1          0.7890   -1.8350    6.5620 c3        1 MOL     -0.280497
      2 C2          1.1490   -1.7220    5.0310 c         1 MOL      0.716754
      3 O1          0.2860   -1.6300    4.1560 o         1 MOL     -0.574509
      4 H1          0.5120   -2.8630    6.7960 hc        1 MOL      0.071337
      5 H2          1.6520   -1.5470    7.1620 hc        1 MOL      0.071337
      6 H3         -0.0480   -1.1740    6.7890 hc        1 MOL      0.071337
      7 N1          2.4420   -1.6450    4.6030 n         1 MOL     -0.701445
      8 C3          2.8670   -1.5140    3.1860 c3        1 MOL      0.332408
      9 C4          3.1340   -2.8870    2.6070 c         1 MOL      0.387484
     10 O2          4.0580   -3.5500    3.0640 o         1 MOL     -0.544154
     11 C5          4.0730   -0.5800    2.9640 c3        1 MOL     -0.327856
     12 C6          4.6980   -0.5640    1.5480 c         1 MOL      0.832568
     13 O3          5.8900   -0.1580    1.5180 o         1 MOL     -0.665350
     14 O4          3.9620   -0.8090    0.5810 o         1 MOL     -0.665350
     15 H4          3.1990   -1.7420    5.2540 hn        1 MOL      0.342171
     16 H5          2.1100   -1.1120    2.5040 h1        1 MOL     -0.021292
     17 H6          4.9460   -0.9790    3.4870 hc        1 MOL      0.043174
     18 H7          3.8590    0.4360    3.2720 hc        1 MOL      0.043174
     19 N2          2.4100   -3.2460    1.5250 n         1 MOL     -0.094590
     20 C7          2.2760   -4.7050    1.1380 c3        1 MOL     -0.187746
     21 C8          3.2410   -5.0260   -0.0750 c         1 MOL      0.444067
     22 O5          3.9860   -6.0480   -0.0460 o         1 MOL     -0.563756
     23 C9          0.7950   -5.1270    0.8960 c3        1 MOL      0.297951
     24 C10         0.0840   -4.9770    2.2470 c3        1 MOL      0.000547
     25 C11         0.7870   -6.6450    0.4970 c3        1 MOL     -0.395506
     26 C12        -1.3890   -5.4080    2.2190 c3        1 MOL      0.015400
     27 H8          1.7510   -2.5550    1.1780 hn        1 MOL      0.084336
     28 H9          2.5270   -5.2880    2.0300 h1        1 MOL      0.101676
     29 H10         0.3390   -4.5350    0.1060 hc        1 MOL     -0.013864
     30 H11         0.0460   -3.9320    2.5420 hc        1 MOL     -0.006491
     31 H12         0.5620   -5.6630    2.9390 hc        1 MOL     -0.006491
     32 H13        -0.2170   -7.0030    0.2770 hc        1 MOL      0.089725
     33 H14         1.3610   -6.8250   -0.4110 hc        1 MOL      0.089725
     34 H15         1.2940   -7.2530    1.2440 hc        1 MOL      0.089725
     35 H16        -1.4850   -6.4790    2.0520 hc        1 MOL     -0.015654
     36 H17        -1.9210   -5.1850    3.1470 hc        1 MOL     -0.015654
     37 H18        -1.9650   -4.9270    1.4390 hc        1 MOL     -0.015654
     38 N3          3.3840   -4.1050   -1.0910 n         1 MOL     -0.305341
     39 C13         4.3710   -4.2170   -2.1880 c3        1 MOL      0.066213
     40 C14         5.6200   -3.4090   -1.8880 c         1 MOL      0.297881
     41 O6          6.4960   -3.2020   -2.7320 o         1 MOL     -0.481136
     42 C15         3.8260   -3.7160   -3.5360 c3        1 MOL     -0.263501
     43 C16         3.1000   -2.3940   -3.4390 c         1 MOL      0.826219
     44 O7          2.2610   -2.0900   -4.2840 o         1 MOL     -0.700018
     45 O8          3.3510   -1.7100   -2.4160 o         1 MOL     -0.700018
     46 H19         2.8510   -3.2590   -1.0080 hn        1 MOL      0.218248
     47 H20         4.6640   -5.2580   -2.3040 h1        1 MOL      0.103380
     48 H21         3.1860   -4.4840   -3.9630 hc        1 MOL      0.056039
     49 H22         4.6190   -3.5570   -4.2670 hc        1 MOL      0.056039
     50 N4          5.8120   -2.8670   -0.6570 n         1 MOL     -0.100418
     51 C17         7.1280   -2.4590   -0.1250 c3        1 MOL     -0.118844
     52 C18         7.7960   -1.3860   -0.9050 c         1 MOL      0.510779
     53 O9          8.9530   -1.5360   -1.3280 o         1 MOL     -0.619249
     54 H23         5.0470   -2.9200    0.0060 hn        1 MOL      0.181340
     55 H24         7.7990   -3.3180   -0.1190 h1        1 MOL      0.059144
     56 H25         7.0340   -2.1220    0.9010 h1        1 MOL      0.059144
     57 N5          7.1120   -0.2940   -1.1260 n         1 MOL     -0.150307
     58 C19         7.5450    1.0210   -1.7230 c3        1 MOL      0.011102
     59 C20         7.4580    2.2960   -0.7850 c         1 MOL      0.324224
     60 O10         7.5510    3.4580   -1.2490 o         1 MOL     -0.519873
     61 C21         6.6340    1.1940   -2.9400 c3        1 MOL     -0.072706
     62 C22         5.0880    1.1270   -2.6370 c         1 MOL      0.703892
     63 O11         4.2180    1.1070   -3.5390 o         1 MOL     -0.717293
     64 O12         4.7110    1.3120   -1.4170 o         1 MOL     -0.717293
     65 H26         6.1520   -0.3170   -0.8050 hn        1 MOL      0.086841
     66 H27         8.6000    0.9740   -2.0270 h1        1 MOL      0.078950
     67 H28         6.9580    0.3630   -3.5680 hc        1 MOL      0.024395
     68 H29         6.8630    2.1120   -3.4940 hc        1 MOL      0.024395
     69 N6          7.1200    2.1690    0.5330 n         1 MOL     -0.144998
     70 C23         7.0800    3.2650    1.5140 c3        1 MOL     -0.075528
     71 C24         5.8100    4.1170    1.4760 c         1 MOL      0.569182
     72 O13         5.8190    5.3030    1.8000 o         1 MOL     -0.600669
     73 H30         6.9640    1.2030    0.7930 hn        1 MOL      0.153221
     74 H31         7.9770    3.8730    1.4700 h1        1 MOL      0.052208
     75 H32         7.1370    2.6810    2.4340 h1        1 MOL      0.052208
     76 N7          4.6930    3.5150    1.0610 n         1 MOL     -0.412470
     77 C25         3.3710    4.1100    0.9580 c3        1 MOL      0.057301
     78 C26         2.3110    3.0370    1.1590 c         1 MOL      0.607029
     79 O14         2.5180    1.8520    0.8780 o         1 MOL     -0.636381
     80 C27         3.2460    4.7430   -0.4160 c3        1 MOL     -0.168857
     81 C28         3.6440    6.2510   -0.3560 c3        1 MOL     -0.431439
     82 C29         3.2120    7.1000   -1.4680 c         1 MOL      0.745021
     83 N8          3.8850    7.1120   -2.6070 n         1 MOL     -0.834209
     84 O15         2.2890    7.8580   -1.3810 o         1 MOL     -0.596251
     85 H33         4.8490    2.5670    0.7400 hn        1 MOL      0.301158
     86 H34         3.2960    4.9070    1.6850 h1        1 MOL      0.067565
     87 H35         2.2360    4.6570   -0.8090 hc        1 MOL      0.119678
     88 H36         3.9080    4.2960   -1.1560 hc        1 MOL      0.119678
     89 H37         4.7390    6.2340   -0.4410 hc        1 MOL      0.160154
     90 H38         3.3090    6.6450    0.6110 hc        1 MOL      0.160154
     91 H39         4.6400    6.4860   -2.8230 hn        1 MOL      0.355248
     92 H40         3.4710    7.5550   -3.4200 hn        1 MOL      0.355248
     93 N9          1.1180    3.4450    1.6830 n         1 MOL     -0.545411
     94 C30         0.0030    2.5340    1.9680 c3        1 MOL      0.256142
     95 C31        -1.2640    3.0390    1.1240 c         1 MOL      0.288829
     96 O16        -1.7420    4.1350    1.2780 o         1 MOL     -0.541207
     97 C32        -0.3630    2.5920    3.4660 c3        1 MOL      0.246183
     98 C33        -1.6330    1.8760    3.9200 c3        1 MOL     -0.307068
     99 C34         0.8160    2.1350    4.4400 c3        1 MOL     -0.307068
    100 H41         0.9810    4.4310    1.8580 hn        1 MOL      0.288831
    101 H42         0.2640    1.5170    1.6920 h1        1 MOL      0.109904
    102 H43        -0.4520    3.6650    3.6750 hc        1 MOL     -0.067136
    103 H44        -1.5530    0.8200    3.6850 hc        1 MOL      0.068628
    104 H45        -1.6340    1.9860    4.9990 hc        1 MOL      0.068628
    105 H46        -2.5230    2.3280    3.4940 hc        1 MOL      0.068628
    106 H47         0.9290    1.0590    4.2790 hc        1 MOL      0.068628
    107 H48         1.6530    2.7630    4.1300 hc        1 MOL      0.068628
    108 H49         0.5910    2.3240    5.4910 hc        1 MOL      0.068628
    109 N10        -1.6690    2.1810    0.2030 n         1 MOL     -0.028877
    110 C35        -2.7490    2.4370   -0.7430 c3        1 MOL      0.088281
    111 C36        -4.0450    1.8900   -0.1480 c         1 MOL      0.370183
    112 O17        -4.0850    1.2100    0.8540 o         1 MOL     -0.299440
    113 C37        -2.4460    1.5980   -1.9690 c3        1 MOL     -0.419501
    114 C38        -3.4760    1.6480   -3.0130 c         1 MOL      0.721780
    115 N11        -3.8750    2.7760   -3.5930 n         1 MOL     -0.802808
    116 O18        -4.1200    0.6420   -3.2890 o         1 MOL     -0.529053
    117 H50        -1.1470    1.3140    0.1380 hn        1 MOL      0.015789
    118 H51        -3.0020    3.4700   -1.0050 h1        1 MOL      0.035435
    119 H52        -2.1800    0.6090   -1.5910 hc        1 MOL      0.148336
    120 H53        -1.5540    2.0320   -2.4190 hc        1 MOL      0.148336
    121 H54        -3.3670    3.6340   -3.4280 hn        1 MOL      0.359295
    122 H55        -4.6410    2.7620   -4.2490 hn        1 MOL      0.359295
    123 N12        -5.1630    2.3090   -0.6650 n         1 MOL     -0.461400
    124 C39        -6.4660    2.0080   -0.1330 c3        1 MOL      0.353345
    125 C40        -6.7480    0.4980   -0.0580 c         1 MOL      0.543913
    126 O19        -7.2110   -0.0210    0.9090 o         1 MOL     -0.527983
    127 C41        -7.5680    2.6800   -0.9720 c3        1 MOL     -0.291644
    128 C42        -8.9930    2.5540   -0.3930 ca        1 MOL      0.165720
    129 C43        -9.2890    3.0410    0.9050 ca        1 MOL     -0.260149
    130 C44       -10.0030    2.0410   -1.2100 ca        1 MOL     -0.260149
    131 C45       -10.5470    2.9610    1.4090 ca        1 MOL     -0.171676
    132 C46       -11.2970    1.8700   -0.6840 ca        1 MOL     -0.171676
    133 C47       -11.5850    2.3980    0.6060 ca        1 MOL      0.238495
    134 O20       -12.8130    2.2890    1.1390 oh        1 MOL     -0.464704
    135 H56        -5.1310    2.9490   -1.4440 hn        1 MOL      0.234992
    136 H57        -6.5180    2.3750    0.8950 h1        1 MOL     -0.014602
    137 H58        -7.5550    2.2830   -1.9900 hc        1 MOL      0.072346
    138 H59        -7.3200    3.7410   -1.0260 hc        1 MOL      0.072346
    139 H60        -8.4240    3.3620    1.4730 ha        1 MOL      0.160260
    140 H61        -9.8000    1.6460   -2.1970 ha        1 MOL      0.160260
    141 H62       -10.7090    3.3660    2.3950 ha        1 MOL      0.138510
    142 H63       -11.9950    1.2690   -1.2500 ha        1 MOL      0.138510
    143 H64       -13.3800    1.8600    0.4880 ho        1 MOL      0.348815
    144 N13        -6.2780   -0.2460   -1.1200 n         1 MOL     -0.452281
    145 C48        -6.4810   -1.7040   -1.1490 c3        1 MOL     -0.007419
    146 C49        -5.5740   -2.4060   -0.1220 c         1 MOL      0.410714
    147 O21        -5.8830   -3.5650    0.2500 o         1 MOL     -0.518447
    148 C50        -6.4560   -2.2820   -2.5600 c3        1 MOL     -0.024638
    149 C51        -7.1050   -3.6430   -2.7210 c3        1 MOL     -0.371893
    150 C52        -7.3280   -3.8480   -4.2560 c         1 MOL      0.757705
    151 O22        -6.4210   -4.3530   -4.9940 o         1 MOL     -0.755635
    152 O23        -8.4550   -3.5950   -4.7590 o         1 MOL     -0.755635
    153 H65        -5.9400    0.2830   -1.9040 hn        1 MOL      0.250660
    154 H66        -7.4890   -1.8560   -0.7540 h1        1 MOL      0.107111
    155 H67        -5.5010   -2.2180   -3.0750 hc        1 MOL      0.052195
    156 H68        -6.9890   -1.4770   -3.0610 hc        1 MOL      0.052195
    157 H69        -8.0190   -3.7380   -2.1350 hc        1 MOL      0.085174
    158 H70        -6.3730   -4.3410   -2.3150 hc        1 MOL      0.085174
    159 N14        -4.4620   -1.7830    0.3410 n         1 MOL     -0.233856
    160 C53        -3.5290   -2.2440    1.4310 c3        1 MOL      0.038327
    161 C54        -3.9920   -1.9090    2.8000 c         1 MOL      0.371554
    162 O24        -3.8230   -2.6810    3.7710 o         1 MOL     -0.546495
    163 C55        -2.1760   -1.4580    1.2300 c3        1 MOL      0.262186
    164 C56        -1.4480   -1.8710   -0.0340 c3        1 MOL      0.091381
    165 C57        -0.1060   -1.2440   -0.2640 c         1 MOL      0.739552
    166 O25         0.8030   -1.9690   -0.7250 o         1 MOL     -0.727862
    167 O26         0.0650   -0.0110   -0.1510 o         1 MOL     -0.727862
    168 H71        -4.2320   -0.8650   -0.0190 hn        1 MOL      0.175313
    169 H72        -3.3350   -3.3100    1.4320 h1        1 MOL      0.070030
    170 H73        -1.4650   -1.6420    2.0410 hc        1 MOL     -0.084967
    171 H74        -2.3760   -0.3940    1.1430 hc        1 MOL     -0.084967
    172 H75        -2.0740   -1.5930   -0.8840 hc        1 MOL     -0.047657
    173 H76        -1.4000   -2.9550   -0.0120 hc        1 MOL     -0.047657
    174 N15        -4.4750   -0.6620    2.9310 n         1 MOL     -0.023626
    175 C58        -5.1040   -0.0690    4.1270 c3        1 MOL     -0.214155
    176 H77        -5.2810   -0.8480    4.8690 h1        1 MOL      0.078663
    177 H78        -4.4440    0.6890    4.5470 h1        1 MOL      0.078663
    178 H79        -6.0540    0.3890    3.8500 h1        1 MOL      0.078663
    179 H80        -4.4900   -0.1090    2.0820 hn        1 MOL      0.015224
    180 Ca1         2.3600    0.1740   -1.1830 Ca        1 MOL      1.750619
    181 O27         0.7370   -0.1640   -3.3590 oh        1 MOL     -0.890379
    182 H81         0.2050    0.0040   -4.1350 ho        1 MOL      0.406211
    183 H82         1.2610   -0.9310   -3.5860 ho        1 MOL      0.406211
    184 O28         2.1660    2.4520   -2.3310 oh        1 MOL     -0.890379
    185 H83         2.9030    2.1990   -2.8890 ho        1 MOL      0.406211
    186 H84         1.8470    3.2700   -2.7000 ho        1 MOL      0.406211
@<TRIPOS>BOND
     1    1    2 1   
     2    1    4 1   
     3    1    5 1   
     4    1    6 1   
     5    2    3 2   
     6    2    7 1   
     7    7    8 1   
     8    7   15 1   
     9    8    9 1   
    10    8   11 1   
    11    8   16 1   
    12    9   10 2   
    13    9   19 1   
    14   11   12 1   
    15   11   17 1   
    16   11   18 1   
    17   12   13 1   
    18   12   14 1   
    19   19   20 1   
    20   19   27 1   
    21   20   21 1   
    22   20   23 1   
    23   20   28 1   
    24   21   22 2   
    25   21   38 1   
    26   23   24 1   
    27   23   25 1   
    28   23   29 1   
    29   24   26 1   
    30   24   30 1   
    31   24   31 1   
    32   25   32 1   
    33   25   33 1   
    34   25   34 1   
    35   26   35 1   
    36   26   36 1   
    37   26   37 1   
    38   38   39 1   
    39   38   46 1   
    40   39   40 1   
    41   39   42 1   
    42   39   47 1   
    43   40   41 2   
    44   40   50 1   
    45   42   43 1   
    46   42   48 1   
    47   42   49 1   
    48   43   44 1   
    49   43   45 1   
    50   50   51 1   
    51   50   54 1   
    52   51   52 1   
    53   51   55 1   
    54   51   56 1   
    55   52   53 2   
    56   52   57 1   
    57   57   58 1   
    58   57   65 1   
    59   58   59 1   
    60   58   61 1   
    61   58   66 1   
    62   59   60 2   
    63   59   69 1   
    64   61   62 1   
    65   61   67 1   
    66   61   68 1   
    67   62   63 1   
    68   62   64 1   
    69   69   70 1   
    70   69   73 1   
    71   70   71 1   
    72   70   74 1   
    73   70   75 1   
    74   71   72 2   
    75   71   76 1   
    76   76   77 1   
    77   76   85 1   
    78   77   78 1   
    79   77   80 1   
    80   77   86 1   
    81   78   79 2   
    82   78   93 1   
    83   80   81 1   
    84   80   87 1   
    85   80   88 1   
    86   81   82 1   
    87   81   89 1   
    88   81   90 1   
    89   82   83 1   
    90   82   84 2   
    91   83   91 1   
    92   83   92 1   
    93   93   94 1   
    94   93  100 1   
    95   94   95 1   
    96   94   97 1   
    97   94  101 1   
    98   95   96 2   
    99   95  109 1   
   100   97   98 1   
   101   97   99 1   
   102   97  102 1   
   103   98  103 1   
   104   98  104 1   
   105   98  105 1   
   106   99  106 1   
   107   99  107 1   
   108   99  108 1   
   109  109  110 1   
   110  109  117 1   
   111  110  111 1   
   112  110  113 1   
   113  110  118 1   
   114  111  112 2   
   115  111  123 1   
   116  113  114 1   
   117  113  119 1   
   118  113  120 1   
   119  114  115 1   
   120  114  116 2   
   121  115  121 1   
   122  115  122 1   
   123  123  124 1   
   124  123  135 1   
   125  124  125 1   
   126  124  127 1   
   127  124  136 1   
   128  125  126 2   
   129  125  144 1   
   130  127  128 1   
   131  127  137 1   
   132  127  138 1   
   133  128  129 ar  
   134  128  130 ar  
   135  129  131 ar  
   136  129  139 1   
   137  130  132 ar  
   138  130  140 1   
   139  131  133 ar  
   140  131  141 1   
   141  132  133 ar  
   142  132  142 1   
   143  133  134 1   
   144  134  143 1   
   145  144  145 1   
   146  144  153 1   
   147  145  146 1   
   148  145  148 1   
   149  145  154 1   
   150  146  147 2   
   151  146  159 1   
   152  148  149 1   
   153  148  155 1   
   154  148  156 1   
   155  149  150 1   
   156  149  157 1   
   157  149  158 1   
   158  150  151 1   
   159  150  152 1   
   160  159  160 1   
   161  159  168 1   
   162  160  161 1   
   163  160  163 1   
   164  160  169 1   
   165  161  162 2   
   166  161  174 1   
   167  163  164 1   
   168  163  170 1   
   169  163  171 1   
   170  164  165 1   
   171  164  172 1   
   172  164  173 1   
   173  165  166 1   
   174  165  167 1   
   175  174  175 1   
   176  174  179 1   
   177  175  176 1   
   178  175  177 1   
   179  175  178 1   
   180  181  182 1   
   181  181  183 1   
   182  184  185 1   
   183  184  186 1   
@<TRIPOS>SUBSTRUCTURE
     1 MOL         1 TEMP              0 ****  ****    0 ROOT
