@<TRIPOS>MOLECULE
MOL
  172   171     1     0     0
SMALL
resp


@<TRIPOS>ATOM
      1 C1          0.0510   -3.4000    5.9000 c3        1 MOL     -0.460879
      2 C2          0.5160   -3.5120    4.4160 c         1 MOL      0.710543
      3 O1         -0.2100   -3.9820    3.5340 o         1 MOL     -0.565116
      4 H1          0.2900   -4.3250    6.4260 hc        1 MOL      0.118362
      5 H2          0.5640   -2.5670    6.3810 hc        1 MOL      0.118362
      6 H3         -1.0260   -3.2320    5.9330 hc        1 MOL      0.118362
      7 N1          1.7480   -3.0840    4.0980 n         1 MOL     -0.615357
      8 C3          2.4060   -3.1240    2.7280 c3        1 MOL      0.296926
      9 C4          2.5370   -4.4440    2.0270 c         1 MOL      0.442907
     10 O2          3.0620   -5.3730    2.6650 o         1 MOL     -0.559228
     11 C5          3.7520   -2.5070    2.8720 c3        1 MOL     -0.132262
     12 C6          4.5760   -2.3650    1.5910 c         1 MOL      0.561053
     13 O3          5.8180   -2.6060    1.5950 o         1 MOL     -0.579394
     14 O4          3.8280   -2.0180    0.5920 o         1 MOL     -0.579394
     15 H4          2.3600   -2.7580    4.8340 hn        1 MOL      0.293833
     16 H5          1.7880   -2.4420    2.1310 h1        1 MOL     -0.063764
     17 H6          4.3210   -3.0180    3.6520 hc        1 MOL     -0.000437
     18 H7          3.6380   -1.4890    3.2550 hc        1 MOL     -0.000437
     19 N2          2.2470   -4.4410    0.6960 n         1 MOL     -0.231066
     20 C7          2.6200   -5.4820   -0.2240 c3        1 MOL      0.273700
     21 C8          3.6950   -5.2170   -1.3130 c         1 MOL      0.371152
     22 O5          3.9360   -6.0840   -2.1380 o         1 MOL     -0.554831
     23 C9          1.3740   -5.9150   -0.9600 c3        1 MOL     -0.176478
     24 H8          1.7720   -3.6280    0.3350 hn        1 MOL      0.096575
     25 H9          2.9650   -6.3130    0.3930 h1        1 MOL     -0.019293
     26 H10         0.9460   -5.1550   -1.6140 hc        1 MOL      0.038726
     27 H11         1.5280   -6.7890   -1.6080 hc        1 MOL      0.038726
     28 H12         0.5900   -6.1190   -0.2290 hc        1 MOL      0.038726
     29 N3          4.2010   -3.9990   -1.4330 n         1 MOL     -0.276027
     30 C10         4.9210   -3.4650   -2.6030 c3        1 MOL      0.028381
     31 C11         6.1080   -2.6040   -2.4020 c         1 MOL      0.336633
     32 O6          6.7570   -2.2480   -3.3780 o         1 MOL     -0.511944
     33 C12         3.9720   -2.6830   -3.5090 c3        1 MOL      0.002294
     34 C13         3.1900   -1.6730   -2.7500 c         1 MOL      0.748749
     35 O7          3.7180   -0.7340   -2.1490 o         1 MOL     -0.736524
     36 O8          1.9350   -1.6790   -2.7460 o         1 MOL     -0.736524
     37 H13         3.9870   -3.3320   -0.7050 hn        1 MOL      0.201521
     38 H14         5.2330   -4.2770   -3.2560 h1        1 MOL      0.086071
     39 H15         3.1930   -3.3220   -3.9100 hc        1 MOL     -0.002558
     40 H16         4.4980   -2.2120   -4.3390 hc        1 MOL     -0.002558
     41 N4          6.4580   -2.2860   -1.1140 n         1 MOL     -0.108579
     42 C14         7.5810   -1.4170   -0.7930 c3        1 MOL     -0.227139
     43 C15         7.6180    0.0500   -1.2830 c         1 MOL      0.479017
     44 O9          8.6880    0.6730   -1.3900 o         1 MOL     -0.592213
     45 H17         5.9070   -2.6010   -0.3270 hn        1 MOL      0.104203
     46 H18         8.5070   -1.8520   -1.1860 h1        1 MOL      0.104281
     47 H19         7.5340   -1.3050    0.2870 h1        1 MOL      0.104281
     48 N5          6.4410    0.6730   -1.5110 n         1 MOL     -0.010693
     49 C16         6.3390    2.0280   -2.0230 c3        1 MOL     -0.306892
     50 C17         6.2520    3.1480   -1.0280 c         1 MOL      0.515516
     51 O10         6.1090    4.3220   -1.3860 o         1 MOL     -0.511983
     52 C18         5.2380    2.1090   -3.1310 c3        1 MOL      0.016137
     53 C19         3.8240    2.1540   -2.5260 c         1 MOL      0.444954
     54 N6          2.8060    2.5120   -3.3110 n         1 MOL     -0.555502
     55 O11         3.5110    1.8970   -1.3200 o         1 MOL     -0.584061
     56 H20         5.6060    0.1250   -1.3600 hn        1 MOL      0.063949
     57 H21         7.3020    2.1690   -2.5100 h1        1 MOL      0.162545
     58 H22         5.3200    1.2230   -3.7620 hc        1 MOL      0.056619
     59 H23         5.4050    2.8730   -3.8900 hc        1 MOL      0.056619
     60 H24         3.0890    2.6720   -4.2660 hn        1 MOL      0.306829
     61 H25         1.8420    2.3830   -3.0270 hn        1 MOL      0.306829
     62 N7          6.1890    2.8370    0.2530 n         1 MOL     -0.258971
     63 C20         6.1990    3.8800    1.3050 c3        1 MOL     -0.130396
     64 C21         4.8490    4.6620    1.3960 c         1 MOL      0.462034
     65 O12         4.7780    5.7840    1.9500 o         1 MOL     -0.562464
     66 H26         6.3390    1.9000    0.5960 hn        1 MOL      0.239566
     67 H27         7.0150    4.5900    1.1930 h1        1 MOL      0.083852
     68 H28         6.2920    3.3540    2.2480 h1        1 MOL      0.083852
     69 N8          3.7170    4.0820    0.9510 n         1 MOL     -0.121003
     70 C22         2.3490    4.5580    1.1580 c3        1 MOL     -0.266745
     71 C23         1.2780    3.4430    1.1780 c         1 MOL      0.368451
     72 O13         1.3490    2.4450    0.4820 o         1 MOL     -0.272963
     73 C24         1.9600    5.6140    0.0640 c3        1 MOL      0.498598
     74 C25         2.7980    6.8940    0.1740 c3        1 MOL     -0.431740
     75 O14         2.1850    4.9880   -1.1810 oh        1 MOL     -0.617344
     76 H29         3.7830    3.1660    0.5440 hn        1 MOL      0.200001
     77 H30         2.3170    5.0990    2.1140 h1        1 MOL      0.082621
     78 H31         0.8850    5.7820    0.1810 h1        1 MOL     -0.054316
     79 H32         1.8810    4.0810   -1.1470 ho        1 MOL      0.360950
     80 H33         2.7720    7.3310    1.1750 hc        1 MOL      0.117013
     81 H34         3.7830    6.7340   -0.2680 hc        1 MOL      0.117013
     82 H35         2.3600    7.7180   -0.4050 hc        1 MOL      0.117013
     83 N9          0.2360    3.6950    1.9470 n         1 MOL     -0.227185
     84 C26        -1.0160    2.8850    2.0060 c3        1 MOL     -0.125684
     85 C27        -1.7160    3.1380    0.7010 c         1 MOL      0.554484
     86 O15        -2.3100    4.2050    0.4280 o         1 MOL     -0.605111
     87 C28        -1.7270    3.1160    3.3600 c3        1 MOL      0.108282
     88 C29        -0.7430    2.5350    4.4720 c3        1 MOL      0.121759
     89 C30        -3.0600    2.3780    3.4520 c3        1 MOL     -0.073074
     90 C31        -1.3410    2.9740    5.8520 c3        1 MOL     -0.270702
     91 H36         0.1250    4.6530    2.2420 hn        1 MOL      0.226324
     92 H37        -0.8510    1.8130    2.0530 h1        1 MOL      0.153184
     93 H38        -1.8770    4.1890    3.4800 hc        1 MOL     -0.001556
     94 H39         0.2220    3.0020    4.2500 hc        1 MOL     -0.037928
     95 H40        -0.6290    1.4560    4.3850 hc        1 MOL     -0.037928
     96 H41        -3.5570    2.6970    4.3640 hc        1 MOL      0.015339
     97 H42        -3.7300    2.6750    2.6460 hc        1 MOL      0.015339
     98 H43        -2.9380    1.2940    3.4010 hc        1 MOL      0.015339
     99 H44        -1.5230    4.0410    5.8700 hc        1 MOL      0.058435
    100 H45        -2.2250    2.3420    5.9930 hc        1 MOL      0.058435
    101 H46        -0.6750    2.7660    6.6900 hc        1 MOL      0.058435
    102 N10        -1.8250    2.0740   -0.0890 n         1 MOL      0.034336
    103 C32        -2.7090    1.9430   -1.2490 c3        1 MOL      0.015145
    104 C33        -4.1350    1.5100   -0.7890 c         1 MOL      0.500327
    105 O16        -4.3800    1.1230    0.3290 o         1 MOL     -0.345775
    106 C34        -2.1840    0.8410   -2.1950 c3        1 MOL     -0.344415
    107 C35        -0.7430    1.0560   -2.6190 c         1 MOL      0.786044
    108 O17         0.1550    0.7270   -1.7940 o         1 MOL     -0.687885
    109 O18        -0.4330    1.4740   -3.7940 o         1 MOL     -0.687885
    110 H47        -1.3030    1.2740    0.2360 hn        1 MOL     -0.491915
    111 H48        -2.7260    2.9070   -1.7530 h1        1 MOL      0.081889
    112 H49        -2.7590    0.7310   -3.1110 hc        1 MOL      0.113592
    113 H50        -2.2910   -0.1510   -1.7510 hc        1 MOL      0.113592
    114 N11        -5.0830    1.6910   -1.7280 n         1 MOL     -0.685796
    115 C36        -6.5400    1.4930   -1.3480 c3        1 MOL      0.355986
    116 C37        -6.8500    0.0260   -0.9150 c         1 MOL      0.601232
    117 O19        -7.4080   -0.0910    0.1250 o         1 MOL     -0.539761
    118 C38        -7.5040    1.9690   -2.4730 c3        1 MOL     -0.149571
    119 C39        -8.8740    1.2420   -2.4740 ca        1 MOL      0.066400
    120 C40        -9.6980    1.5800   -1.4000 ca        1 MOL     -0.148897
    121 C41        -9.3230    0.4540   -3.4830 ca        1 MOL     -0.148897
    122 C42       -10.9910    1.1070   -1.3070 ca        1 MOL     -0.111161
    123 C43       -10.6290   -0.0500   -3.4530 ca        1 MOL     -0.111161
    124 C44       -11.4470    0.2830   -2.3670 ca        1 MOL     -0.117178
    125 H51        -4.8070    1.7970   -2.6980 hn        1 MOL      0.346618
    126 H52        -6.7800    2.0900   -0.4640 h1        1 MOL      0.031846
    127 H53        -7.0500    1.8040   -3.4600 hc        1 MOL      0.042161
    128 H54        -7.6040    3.0480   -2.4190 hc        1 MOL      0.042161
    129 H55        -9.3280    2.2800   -0.6620 ha        1 MOL      0.110100
    130 H56        -8.6770    0.2000   -4.3020 ha        1 MOL      0.110100
    131 H57       -11.6720    1.2870   -0.4860 ha        1 MOL      0.113199
    132 H58       -11.0690   -0.6420   -4.2430 ha        1 MOL      0.113199
    133 H59       -12.4570   -0.0920   -2.3490 ha        1 MOL      0.095526
    134 N12        -6.3440   -1.0740   -1.5410 n         1 MOL     -0.343277
    135 C45        -6.4240   -2.4400   -0.9120 c3        1 MOL      0.150822
    136 C46        -5.6810   -2.5800    0.4580 c         1 MOL      0.273478
    137 O20        -6.0410   -3.4270    1.2830 o         1 MOL     -0.516994
    138 C47        -5.8740   -3.4070   -1.9590 c3        1 MOL     -0.062915
    139 C48        -6.0580   -2.6060   -3.2380 c3        1 MOL      0.174177
    140 C49        -5.7400   -1.1970   -2.8610 c3        1 MOL     -0.210883
    141 H60        -7.4800   -2.6650   -0.7370 h1        1 MOL      0.050826
    142 H61        -4.8580   -3.7160   -1.7410 hc        1 MOL      0.031722
    143 H62        -6.5350   -4.2770   -1.9990 hc        1 MOL      0.031722
    144 H63        -5.3560   -2.8930   -4.0220 hc        1 MOL     -0.022017
    145 H64        -6.9920   -2.7700   -3.7650 hc        1 MOL     -0.022017
    146 H65        -4.6520   -1.1420   -2.8260 h1        1 MOL      0.091814
    147 H66        -6.2040   -0.5480   -3.6000 h1        1 MOL      0.091814
    148 N13        -4.6170   -1.8340    0.6780 n         1 MOL     -0.016738
    149 C50        -3.9160   -1.8130    1.9400 c3        1 MOL     -0.130346
    150 C51        -4.7730   -1.0220    2.9660 c         1 MOL      0.449727
    151 O21        -4.6650   -1.2560    4.1570 o         1 MOL     -0.576316
    152 C52        -2.4910   -1.3350    1.7960 c3        1 MOL     -0.117170
    153 C53        -1.7210   -2.2510    0.8080 c3        1 MOL     -0.303958
    154 C54        -0.2980   -1.6800    0.7120 c         1 MOL      0.811843
    155 O22        -0.1650   -0.5170    1.0630 o         1 MOL     -0.673316
    156 O23         0.5830   -2.2270    0.0050 o         1 MOL     -0.673316
    157 H67        -4.4180   -1.0790    0.0480 hn        1 MOL      0.093152
    158 H68        -3.8070   -2.8360    2.3250 h1        1 MOL      0.115351
    159 H69        -2.1110   -1.4560    2.8060 hc        1 MOL      0.150152
    160 H70        -2.5860   -0.3280    1.3820 hc        1 MOL      0.150152
    161 H71        -2.0970   -2.2210   -0.2100 hc        1 MOL      0.110780
    162 H72        -1.6420   -3.2700    1.2100 hc        1 MOL      0.110780
    163 N14        -5.5850   -0.0120    2.5820 n         1 MOL      0.030952
    164 C55        -6.6460    0.5950    3.4540 c3        1 MOL     -0.156817
    165 H73        -6.5720    0.1780    4.4590 h1        1 MOL      0.061471
    166 H74        -6.5060    1.6750    3.4990 h1        1 MOL      0.061471
    167 H75        -7.6290    0.3730    3.0400 h1        1 MOL      0.061471
    168 H76        -5.6230    0.1760    1.5970 hn        1 MOL     -0.003871
    169 Ca1         2.0330   -0.1140   -0.3260 Ca        1 MOL      1.718584
    170 O24         3.3980    0.9480    2.0240 oh        1 MOL     -0.944627
    171 H77         4.3330    1.0830    2.1590 ho        1 MOL      0.442852
    172 H78         3.0740    0.6270    2.8730 ho        1 MOL      0.442852
@<TRIPOS>BOND
     1    1    2 1   
     2    1    4 1   
     3    1    5 1   
     4    1    6 1   
     5    2    3 2   
     6    2    7 1   
     7    7    8 1   
     8    7   15 1   
     9    8    9 1   
    10    8   11 1   
    11    8   16 1   
    12    9   10 2   
    13    9   19 1   
    14   11   12 1   
    15   11   17 1   
    16   11   18 1   
    17   12   13 1   
    18   12   14 1   
    19   19   20 1   
    20   19   24 1   
    21   20   21 1   
    22   20   23 1   
    23   20   25 1   
    24   21   22 2   
    25   21   29 1   
    26   23   26 1   
    27   23   27 1   
    28   23   28 1   
    29   29   30 1   
    30   29   37 1   
    31   30   31 1   
    32   30   33 1   
    33   30   38 1   
    34   31   32 2   
    35   31   41 1   
    36   33   34 1   
    37   33   39 1   
    38   33   40 1   
    39   34   35 1   
    40   34   36 1   
    41   41   42 1   
    42   41   45 1   
    43   42   43 1   
    44   42   46 1   
    45   42   47 1   
    46   43   44 2   
    47   43   48 1   
    48   48   49 1   
    49   48   56 1   
    50   49   50 1   
    51   49   52 1   
    52   49   57 1   
    53   50   51 2   
    54   50   62 1   
    55   52   53 1   
    56   52   58 1   
    57   52   59 1   
    58   53   54 1   
    59   53   55 2   
    60   54   60 1   
    61   54   61 1   
    62   62   63 1   
    63   62   66 1   
    64   63   64 1   
    65   63   67 1   
    66   63   68 1   
    67   64   65 2   
    68   64   69 1   
    69   69   70 1   
    70   69   76 1   
    71   70   71 1   
    72   70   73 1   
    73   70   77 1   
    74   71   72 2   
    75   71   83 1   
    76   73   74 1   
    77   73   75 1   
    78   73   78 1   
    79   74   80 1   
    80   74   81 1   
    81   74   82 1   
    82   75   79 1   
    83   83   84 1   
    84   83   91 1   
    85   84   85 1   
    86   84   87 1   
    87   84   92 1   
    88   85   86 2   
    89   85  102 1   
    90   87   88 1   
    91   87   89 1   
    92   87   93 1   
    93   88   90 1   
    94   88   94 1   
    95   88   95 1   
    96   89   96 1   
    97   89   97 1   
    98   89   98 1   
    99   90   99 1   
   100   90  100 1   
   101   90  101 1   
   102  102  103 1   
   103  102  110 1   
   104  103  104 1   
   105  103  106 1   
   106  103  111 1   
   107  104  105 2   
   108  104  114 1   
   109  106  107 1   
   110  106  112 1   
   111  106  113 1   
   112  107  108 1   
   113  107  109 1   
   114  114  115 1   
   115  114  125 1   
   116  115  116 1   
   117  115  118 1   
   118  115  126 1   
   119  116  117 2   
   120  116  134 1   
   121  118  119 1   
   122  118  127 1   
   123  118  128 1   
   124  119  120 ar  
   125  119  121 ar  
   126  120  122 ar  
   127  120  129 1   
   128  121  123 ar  
   129  121  130 1   
   130  122  124 ar  
   131  122  131 1   
   132  123  124 ar  
   133  123  132 1   
   134  124  133 1   
   135  134  135 1   
   136  134  140 1   
   137  135  136 1   
   138  135  138 1   
   139  135  141 1   
   140  136  137 2   
   141  136  148 1   
   142  138  139 1   
   143  138  142 1   
   144  138  143 1   
   145  139  140 1   
   146  139  144 1   
   147  139  145 1   
   148  140  146 1   
   149  140  147 1   
   150  148  149 1   
   151  148  157 1   
   152  149  150 1   
   153  149  152 1   
   154  149  158 1   
   155  150  151 2   
   156  150  163 1   
   157  152  153 1   
   158  152  159 1   
   159  152  160 1   
   160  153  154 1   
   161  153  161 1   
   162  153  162 1   
   163  154  155 1   
   164  154  156 1   
   165  163  164 1   
   166  163  168 1   
   167  164  165 1   
   168  164  166 1   
   169  164  167 1   
   170  170  171 1   
   171  170  172 1   
@<TRIPOS>SUBSTRUCTURE
     1 MOL         1 TEMP              0 ****  ****    0 ROOT
