@<TRIPOS>MOLECULE
MOL
  186   183     1     0     0
SMALL
resp


@<TRIPOS>ATOM
      1 C1          0.5850   -1.5300    6.1440 c3        1 MOL     -0.289554
      2 C2          0.9800   -1.7610    4.7120 c         1 MOL      0.679472
      3 O1          0.3920   -2.6350    4.1020 o         1 MOL     -0.531871
      4 H1          1.1810   -2.1730    6.7940 hc        1 MOL      0.067646
      5 H2          0.7610   -0.4870    6.4070 hc        1 MOL      0.067646
      6 H3         -0.4720   -1.7650    6.2720 hc        1 MOL      0.067646
      7 N1          2.0510   -1.1370    4.2140 n         1 MOL     -0.647630
      8 C3          2.6390   -1.4220    2.8510 c3        1 MOL      0.382803
      9 C4          2.9180   -2.9740    2.6640 c         1 MOL      0.585733
     10 O2          3.5950   -3.5310    3.4440 o         1 MOL     -0.619881
     11 C5          3.8000   -0.5090    2.7180 c3        1 MOL     -0.303575
     12 C6          4.6150   -0.5810    1.4640 c         1 MOL      0.698378
     13 O3          4.0320   -0.8530    0.4050 o         1 MOL     -0.645431
     14 O4          5.8450   -0.3360    1.5270 o         1 MOL     -0.645431
     15 H4          2.3900   -0.3870    4.8050 hn        1 MOL      0.320466
     16 H5          1.9420   -1.0580    2.0840 h1        1 MOL     -0.105492
     17 H6          4.4250   -0.7740    3.5700 hc        1 MOL      0.034201
     18 H7          3.5050    0.5290    2.9060 hc        1 MOL      0.034201
     19 N2          2.4030   -3.5430    1.6460 n         1 MOL     -0.076520
     20 C7          2.5460   -4.9820    1.2630 c3        1 MOL     -0.026868
     21 C8          3.4980   -5.2570    0.1220 c         1 MOL      0.318936
     22 O5          4.0520   -6.3320   -0.0370 o         1 MOL     -0.538793
     23 C9          1.0950   -5.4650    1.0470 c3        1 MOL      0.341041
     24 C10         0.2980   -5.7110    2.3430 c3        1 MOL      0.018748
     25 C11         1.0070   -6.7800    0.2730 c3        1 MOL     -0.257290
     26 C12         0.8600   -6.6170    3.4690 c3        1 MOL     -0.201365
     27 H8          1.8090   -2.9600    1.0740 hn        1 MOL      0.019033
     28 H9          2.9060   -5.5200    2.1450 h1        1 MOL      0.068359
     29 H10         0.6210   -4.6670    0.4780 hc        1 MOL     -0.089296
     30 H11        -0.7040   -6.0450    2.0850 hc        1 MOL      0.005629
     31 H12         0.2590   -4.7220    2.8040 hc        1 MOL      0.005629
     32 H13         1.6970   -7.5690    0.5870 hc        1 MOL      0.044502
     33 H14        -0.0360   -7.0930    0.3170 hc        1 MOL      0.044502
     34 H15         1.1870   -6.6000   -0.7780 hc        1 MOL      0.044502
     35 H16         0.8390   -7.6670    3.1560 hc        1 MOL      0.033801
     36 H17         1.8980   -6.3180    3.6160 hc        1 MOL      0.033801
     37 H18         0.1910   -6.5100    4.3200 hc        1 MOL      0.033801
     38 N3          3.6860   -4.2450   -0.7370 n         1 MOL     -0.078413
     39 C13         4.6210   -4.3030   -1.9130 c3        1 MOL     -0.012282
     40 C14         5.9220   -3.4170   -1.8880 c         1 MOL      0.481286
     41 O6          6.6190   -3.3640   -2.8770 o         1 MOL     -0.513980
     42 C15         3.8340   -4.1270   -3.2050 c3        1 MOL     -0.089076
     43 C16         3.0860   -2.8270   -3.2660 c         1 MOL      0.749546
     44 O7          2.1940   -2.7560   -4.1480 o         1 MOL     -0.707382
     45 O8          3.4000   -1.8570   -2.5070 o         1 MOL     -0.707382
     46 H19         3.3030   -3.3480   -0.4870 hn        1 MOL      0.004083
     47 H20         4.9550   -5.3400   -1.9430 h1        1 MOL      0.077596
     48 H21         3.0700   -4.8960   -3.3360 hc        1 MOL      0.023933
     49 H22         4.5220   -4.2150   -4.0400 hc        1 MOL      0.023933
     50 N4          6.2170   -2.8420   -0.6540 n         1 MOL     -0.414235
     51 C17         7.5770   -2.3000   -0.2900 c3        1 MOL     -0.091283
     52 C18         7.9880   -0.9960   -1.0210 c         1 MOL      0.499249
     53 O9          9.1360   -0.5830   -0.9570 o         1 MOL     -0.602975
     54 H23         5.4440   -2.7310   -0.0100 hn        1 MOL      0.250716
     55 H24         8.3550   -3.0420   -0.4880 h1        1 MOL      0.091506
     56 H25         7.6620   -2.1750    0.7950 h1        1 MOL      0.091506
     57 N5          7.0180   -0.2940   -1.6580 n         1 MOL     -0.282770
     58 C19         7.2570    1.0880   -2.2390 c3        1 MOL      0.001591
     59 C20         7.3770    2.2030   -1.1610 c         1 MOL      0.417778
     60 O10         7.6580    3.3350   -1.4430 o         1 MOL     -0.534943
     61 C21         6.2230    1.4060   -3.3520 c3        1 MOL     -0.320944
     62 C22         4.7340    1.3460   -2.7740 c         1 MOL      0.869038
     63 O11         3.7680    1.1670   -3.5360 o         1 MOL     -0.792648
     64 O12         4.5280    1.4560   -1.5460 o         1 MOL     -0.792648
     65 H26         6.0630   -0.6290   -1.5850 hn        1 MOL      0.256761
     66 H27         8.2290    0.9910   -2.7120 h1        1 MOL      0.097867
     67 H28         6.3950    0.6640   -4.1380 hc        1 MOL      0.083365
     68 H29         6.3710    2.4310   -3.6860 hc        1 MOL      0.083365
     69 N6          7.1640    1.8590    0.1490 n         1 MOL     -0.150381
     70 C23         7.2600    2.9100    1.1750 c3        1 MOL     -0.135233
     71 C24         6.0760    3.8540    1.3750 c         1 MOL      0.615739
     72 O13         6.2000    4.9300    1.9700 o         1 MOL     -0.632961
     73 H30         6.9310    0.9090    0.3600 hn        1 MOL      0.228329
     74 H31         8.1490    3.5320    1.0590 h1        1 MOL      0.056804
     75 H32         7.3670    2.2220    2.0040 h1        1 MOL      0.056804
     76 N7          4.9020    3.5330    0.8920 n         1 MOL     -0.318332
     77 C25         3.5520    4.2950    0.9860 c3        1 MOL     -0.040390
     78 C26         2.3220    3.3710    0.9550 c         1 MOL      0.670150
     79 O14         2.3980    2.2080    0.6810 o         1 MOL     -0.591810
     80 C27         3.5130    5.2730   -0.2040 c3        1 MOL      0.015199
     81 C28         3.9850    6.5770    0.3350 c3        1 MOL     -0.340078
     82 C29         3.5810    7.7090   -0.6280 c         1 MOL      0.668014
     83 N8          4.3960    7.9950   -1.6010 n         1 MOL     -0.808956
     84 O15         2.5360    8.3390   -0.4710 o         1 MOL     -0.586347
     85 H33         4.7690    2.6410    0.4320 hn        1 MOL      0.206658
     86 H34         3.4480    4.7830    1.9610 h1        1 MOL      0.075692
     87 H35         2.4640    5.3380   -0.5180 hc        1 MOL      0.059829
     88 H36         4.0490    4.9880   -1.1060 hc        1 MOL      0.059829
     89 H37         5.0710    6.5700    0.3670 hc        1 MOL      0.115129
     90 H38         3.5220    6.8260    1.2930 hc        1 MOL      0.115129
     91 H39         5.2330    7.4460   -1.7250 hn        1 MOL      0.364380
     92 H40         4.2310    8.7860   -2.2210 hn        1 MOL      0.364380
     93 N9          1.1530    3.9040    1.2970 n         1 MOL     -0.476924
     94 C30        -0.0280    3.0720    1.4990 c3        1 MOL      0.008684
     95 C31        -1.1490    3.4240    0.5010 c         1 MOL      0.547477
     96 O16        -1.5150    4.5590    0.3870 o         1 MOL     -0.577299
     97 C32        -0.4620    3.0400    3.0040 c3        1 MOL      0.236765
     98 C33        -1.8990    2.5130    3.2210 c3        1 MOL     -0.329974
     99 C34         0.5600    2.1790    3.7080 c3        1 MOL     -0.329974
    100 H41         1.1730    4.8810    1.5400 hn        1 MOL      0.269753
    101 H42         0.1900    2.0450    1.2100 h1        1 MOL      0.089646
    102 H43        -0.4710    4.0200    3.4670 hc        1 MOL     -0.020566
    103 H44        -2.5580    3.3780    3.1150 hc        1 MOL      0.071926
    104 H45        -2.1110    1.7930    2.4280 hc        1 MOL      0.071926
    105 H46        -1.9410    2.1010    4.2300 hc        1 MOL      0.071926
    106 H47         0.3950    2.1470    4.7910 hc        1 MOL      0.071926
    107 H48         0.5020    1.1820    3.2950 hc        1 MOL      0.071926
    108 H49         1.5640    2.4920    3.4250 hc        1 MOL      0.071926
    109 N10        -1.6080    2.4570   -0.3080 n         1 MOL     -0.171260
    110 C35        -2.7680    2.5160   -1.1460 c3        1 MOL      0.054896
    111 C36        -4.1580    2.2030   -0.4660 c         1 MOL      0.468090
    112 O17        -4.1290    1.6710    0.6270 o         1 MOL     -0.374331
    113 C37        -2.5760    1.7500   -2.5330 c3        1 MOL     -0.325588
    114 C38        -3.0960    0.2990   -2.4870 c         1 MOL      0.679273
    115 N11        -2.1840   -0.6270   -2.1620 n         1 MOL     -0.879007
    116 O18        -4.2820    0.0290   -2.7310 o         1 MOL     -0.576139
    117 H50        -1.3150    1.5000   -0.1810 hn        1 MOL      0.057778
    118 H51        -2.8650    3.5830   -1.3850 h1        1 MOL      0.039813
    119 H52        -1.5380    1.7830   -2.8280 hc        1 MOL      0.107003
    120 H53        -3.0790    2.3040   -3.3310 hc        1 MOL      0.107003
    121 H54        -1.1950   -0.4700   -2.0200 hn        1 MOL      0.444711
    122 H55        -2.5880   -1.5420   -2.0310 hn        1 MOL      0.444711
    123 N12        -5.2750    2.4080   -1.1780 n         1 MOL     -0.618805
    124 C39        -6.5750    2.2180   -0.5720 c3        1 MOL      0.409325
    125 C40        -6.8660    0.7920   -0.1260 c         1 MOL      0.716525
    126 O19        -7.0620    0.5970    1.0430 o         1 MOL     -0.606411
    127 C41        -7.6240    2.9800   -1.3740 c3        1 MOL     -0.204199
    128 C42        -9.0360    2.7240   -0.9850 ca        1 MOL      0.098088
    129 C43        -9.5660    3.4640    0.0690 ca        1 MOL     -0.239244
    130 C44        -9.7980    1.7200   -1.5640 ca        1 MOL     -0.239244
    131 C45       -10.9060    3.2620    0.4440 ca        1 MOL     -0.201845
    132 C46       -11.1200    1.4260   -1.0970 ca        1 MOL     -0.201845
    133 C47       -11.7120    2.2540   -0.1110 ca        1 MOL      0.292942
    134 O20       -12.9040    1.9820    0.3660 oh        1 MOL     -0.507747
    135 H56        -5.2550    2.7980   -2.1010 hn        1 MOL      0.311980
    136 H57        -6.6190    2.6860    0.4090 h1        1 MOL     -0.031958
    137 H58        -7.5220    2.7130   -2.4230 hc        1 MOL      0.055192
    138 H59        -7.4250    4.0490   -1.2590 hc        1 MOL      0.055192
    139 H60        -8.9380    4.1560    0.6090 ha        1 MOL      0.157227
    140 H61        -9.3170    1.0450   -2.2600 ha        1 MOL      0.157227
    141 H62       -11.3420    3.8330    1.2540 ha        1 MOL      0.129021
    142 H63       -11.6330    0.5790   -1.5100 ha        1 MOL      0.129021
    143 H64       -13.3660    1.2990   -0.1410 ho        1 MOL      0.392428
    144 N13        -6.6930   -0.1930   -0.9850 n         1 MOL     -0.560072
    145 C48        -6.8930   -1.6980   -0.6900 c3        1 MOL     -0.074142
    146 C49        -5.8120   -2.1510    0.2990 c         1 MOL      0.454274
    147 O21        -5.8690   -3.2340    0.7910 o         1 MOL     -0.553634
    148 C50        -6.7300   -2.4420   -2.0180 c3        1 MOL      0.200233
    149 C51        -7.1680   -3.9200   -2.0560 c3        1 MOL     -0.210317
    150 C52        -7.3950   -4.4070   -3.4220 c         1 MOL      0.664506
    151 O22        -6.4950   -4.2660   -4.2700 o         1 MOL     -0.738473
    152 O23        -8.5850   -4.7120   -3.7110 o         1 MOL     -0.738473
    153 H65        -6.3980    0.0450   -1.9220 hn        1 MOL      0.250191
    154 H66        -7.8490   -1.9800   -0.2440 h1        1 MOL      0.114217
    155 H67        -5.6870   -2.4860   -2.3420 hc        1 MOL      0.018138
    156 H68        -7.3640   -1.9220   -2.7360 hc        1 MOL      0.018138
    157 H69        -8.1080   -3.9320   -1.5110 hc        1 MOL      0.010593
    158 H70        -6.4770   -4.5150   -1.4520 hc        1 MOL      0.010593
    159 N14        -4.7440   -1.4450    0.5030 n         1 MOL     -0.011589
    160 C53        -3.8390   -1.6520    1.6650 c3        1 MOL     -0.064707
    161 C54        -4.3890   -1.0630    2.9510 c         1 MOL      0.473229
    162 O24        -4.3680   -1.7470    3.9620 o         1 MOL     -0.567664
    163 C55        -2.4030   -1.1260    1.4570 c3        1 MOL      0.213815
    164 C56        -1.5410   -2.0410    0.5760 c3        1 MOL      0.112485
    165 C57        -0.1940   -1.2940    0.1210 c         1 MOL      0.429136
    166 O25         0.7330   -2.0360   -0.2810 o         1 MOL     -0.532326
    167 O26        -0.0890   -0.1000   -0.2070 o         1 MOL     -0.532326
    168 H71        -4.6650   -0.6150   -0.0590 hn        1 MOL     -0.092495
    169 H72        -3.6620   -2.7070    1.9060 h1        1 MOL      0.075165
    170 H73        -1.9490   -1.1490    2.4400 hc        1 MOL     -0.057533
    171 H74        -2.4150   -0.1140    1.0380 hc        1 MOL     -0.057533
    172 H75        -2.1280   -2.3260   -0.3020 hc        1 MOL     -0.045870
    173 H76        -1.3470   -2.9140    1.2100 hc        1 MOL     -0.045870
    174 N15        -4.8850    0.1820    2.8950 n         1 MOL     -0.089798
    175 C58        -5.4760    0.9210    4.1040 c3        1 MOL     -0.281102
    176 H77        -5.0020    0.5600    5.0170 h1        1 MOL      0.099554
    177 H78        -5.2980    1.9910    3.9990 h1        1 MOL      0.099554
    178 H79        -6.5490    0.7340    4.1550 h1        1 MOL      0.099554
    179 H80        -5.0890    0.5560    1.9810 hn        1 MOL      0.136625
    180 Ca1         2.2710    0.0840   -1.1920 Ca        1 MOL      1.678187
    181 O27         1.1060    2.2180   -2.3280 oh        1 MOL     -0.839749
    182 H81         0.8280    1.8660   -3.1740 ho        1 MOL      0.398764
    183 H82         1.5740    3.0250   -2.5570 ho        1 MOL      0.398764
    184 O28         0.7810   -0.5830   -3.3590 oh        1 MOL     -0.839749
    185 H83         1.2320   -1.3690   -3.6670 ho        1 MOL      0.398764
    186 H84         0.7850    0.0070   -4.1050 ho        1 MOL      0.398764
@<TRIPOS>BOND
     1    1    2 1   
     2    1    4 1   
     3    1    5 1   
     4    1    6 1   
     5    2    3 2   
     6    2    7 1   
     7    7    8 1   
     8    7   15 1   
     9    8    9 1   
    10    8   11 1   
    11    8   16 1   
    12    9   10 2   
    13    9   19 1   
    14   11   12 1   
    15   11   17 1   
    16   11   18 1   
    17   12   13 1   
    18   12   14 1   
    19   19   20 1   
    20   19   27 1   
    21   20   21 1   
    22   20   23 1   
    23   20   28 1   
    24   21   22 2   
    25   21   38 1   
    26   23   24 1   
    27   23   25 1   
    28   23   29 1   
    29   24   26 1   
    30   24   30 1   
    31   24   31 1   
    32   25   32 1   
    33   25   33 1   
    34   25   34 1   
    35   26   35 1   
    36   26   36 1   
    37   26   37 1   
    38   38   39 1   
    39   38   46 1   
    40   39   40 1   
    41   39   42 1   
    42   39   47 1   
    43   40   41 2   
    44   40   50 1   
    45   42   43 1   
    46   42   48 1   
    47   42   49 1   
    48   43   44 1   
    49   43   45 1   
    50   50   51 1   
    51   50   54 1   
    52   51   52 1   
    53   51   55 1   
    54   51   56 1   
    55   52   53 2   
    56   52   57 1   
    57   57   58 1   
    58   57   65 1   
    59   58   59 1   
    60   58   61 1   
    61   58   66 1   
    62   59   60 2   
    63   59   69 1   
    64   61   62 1   
    65   61   67 1   
    66   61   68 1   
    67   62   63 1   
    68   62   64 1   
    69   69   70 1   
    70   69   73 1   
    71   70   71 1   
    72   70   74 1   
    73   70   75 1   
    74   71   72 2   
    75   71   76 1   
    76   76   77 1   
    77   76   85 1   
    78   77   78 1   
    79   77   80 1   
    80   77   86 1   
    81   78   79 2   
    82   78   93 1   
    83   80   81 1   
    84   80   87 1   
    85   80   88 1   
    86   81   82 1   
    87   81   89 1   
    88   81   90 1   
    89   82   83 1   
    90   82   84 2   
    91   83   91 1   
    92   83   92 1   
    93   93   94 1   
    94   93  100 1   
    95   94   95 1   
    96   94   97 1   
    97   94  101 1   
    98   95   96 2   
    99   95  109 1   
   100   97   98 1   
   101   97   99 1   
   102   97  102 1   
   103   98  103 1   
   104   98  104 1   
   105   98  105 1   
   106   99  106 1   
   107   99  107 1   
   108   99  108 1   
   109  109  110 1   
   110  109  117 1   
   111  110  111 1   
   112  110  113 1   
   113  110  118 1   
   114  111  112 2   
   115  111  123 1   
   116  113  114 1   
   117  113  119 1   
   118  113  120 1   
   119  114  115 1   
   120  114  116 2   
   121  115  121 1   
   122  115  122 1   
   123  123  124 1   
   124  123  135 1   
   125  124  125 1   
   126  124  127 1   
   127  124  136 1   
   128  125  126 2   
   129  125  144 1   
   130  127  128 1   
   131  127  137 1   
   132  127  138 1   
   133  128  129 ar  
   134  128  130 ar  
   135  129  131 ar  
   136  129  139 1   
   137  130  132 ar  
   138  130  140 1   
   139  131  133 ar  
   140  131  141 1   
   141  132  133 ar  
   142  132  142 1   
   143  133  134 1   
   144  134  143 1   
   145  144  145 1   
   146  144  153 1   
   147  145  146 1   
   148  145  148 1   
   149  145  154 1   
   150  146  147 2   
   151  146  159 1   
   152  148  149 1   
   153  148  155 1   
   154  148  156 1   
   155  149  150 1   
   156  149  157 1   
   157  149  158 1   
   158  150  151 1   
   159  150  152 1   
   160  159  160 1   
   161  159  168 1   
   162  160  161 1   
   163  160  163 1   
   164  160  169 1   
   165  161  162 2   
   166  161  174 1   
   167  163  164 1   
   168  163  170 1   
   169  163  171 1   
   170  164  165 1   
   171  164  172 1   
   172  164  173 1   
   173  165  166 1   
   174  165  167 1   
   175  174  175 1   
   176  174  179 1   
   177  175  176 1   
   178  175  177 1   
   179  175  178 1   
   180  181  182 1   
   181  181  183 1   
   182  184  185 1   
   183  184  186 1   
@<TRIPOS>SUBSTRUCTURE
     1 MOL         1 TEMP              0 ****  ****    0 ROOT
