@<TRIPOS>MOLECULE
MOL
  189   185     1     0     0
SMALL
resp


@<TRIPOS>ATOM
      1 C1         -0.2450    2.1460    6.0560 c3        1 MOL     -0.305654
      2 C2         -0.5750    1.8430    4.5600 c         1 MOL      0.720099
      3 O1          0.2750    2.0610    3.6930 o         1 MOL     -0.631206
      4 H1         -0.5400    3.1680    6.2920 hc        1 MOL      0.077426
      5 H2         -0.7890    1.4530    6.6970 hc        1 MOL      0.077426
      6 H3          0.8270    2.0310    6.2220 hc        1 MOL      0.077426
      7 N1         -1.7680    1.3860    4.2460 n         1 MOL     -0.674961
      8 C3         -2.2550    1.2900    2.9090 c3        1 MOL      0.357588
      9 C4         -2.4900    2.7180    2.3150 c         1 MOL      0.428168
     10 O2         -3.3640    3.4390    2.8790 o         1 MOL     -0.563758
     11 C5         -3.4970    0.4050    2.7550 c3        1 MOL     -0.424090
     12 C6         -4.1780    0.3060    1.3870 c         1 MOL      0.916122
     13 O3         -3.4690    0.4810    0.3700 o         1 MOL     -0.676667
     14 O4         -5.3720    0.0940    1.3940 o         1 MOL     -0.676667
     15 H4         -2.4250    1.2380    4.9980 hn        1 MOL      0.350348
     16 H5         -1.5290    0.7680    2.2960 h1        1 MOL     -0.084227
     17 H6         -4.2450    0.9450    3.3370 hc        1 MOL      0.069349
     18 H7         -3.2510   -0.5780    3.1590 hc        1 MOL      0.069349
     19 N2         -1.6750    3.1040    1.3820 n         1 MOL     -0.180518
     20 C7         -1.3770    4.4580    1.0950 c3        1 MOL     -0.051528
     21 C8         -2.2150    4.8910   -0.1060 c         1 MOL      0.584209
     22 O5         -2.2360    6.1170   -0.3460 o         1 MOL     -0.616207
     23 C9          0.2030    4.6020    0.8590 c3        1 MOL     -0.072004
     24 C10         0.7820    6.0310    0.6860 c3        1 MOL      0.060211
     25 C11         0.2850    6.8740    1.8380 c3        1 MOL      0.041533
     26 C12         0.8930    8.2130    1.7630 c3        1 MOL     -0.020517
     27 N3          0.0020    9.2880    2.3170 n4        1 MOL     -0.374695
     28 H8         -0.9860    2.4360    1.0520 hn        1 MOL      0.373903
     29 H9         -1.6630    5.1140    1.9180 h1        1 MOL      0.021298
     30 H10         0.5810    4.0110    0.0280 hc        1 MOL      0.032732
     31 H11         0.6880    4.2380    1.7640 hc        1 MOL      0.032732
     32 H12         0.4800    6.4970   -0.2460 hc        1 MOL      0.003398
     33 H13         1.8620    5.9590    0.6210 hc        1 MOL      0.003398
     34 H14         0.5330    6.3540    2.7600 hc        1 MOL      0.036762
     35 H15        -0.7910    7.0400    1.8020 hc        1 MOL      0.036762
     36 H16         1.1190    8.4150    0.7150 hx        1 MOL      0.073164
     37 H17         1.8490    8.0480    2.2640 hx        1 MOL      0.073164
     38 H18         0.3340   10.2320    2.1620 hn        1 MOL      0.335568
     39 H19        -0.9150    9.2310    1.9180 hn        1 MOL      0.335568
     40 H20        -0.0300    9.1430    3.3150 hn        1 MOL      0.335568
     41 N4         -3.0030    4.0410   -0.7310 n         1 MOL     -0.377579
     42 C13        -3.7910    4.2080   -1.9670 c3        1 MOL      0.011238
     43 C14        -5.0550    3.3190   -1.9610 c         1 MOL      0.474063
     44 O6         -5.7700    3.3030   -2.9740 o         1 MOL     -0.528445
     45 C15        -2.8390    3.9810   -3.1320 c3        1 MOL     -0.045984
     46 C16        -2.1410    2.6120   -3.2220 c         1 MOL      0.766535
     47 O7         -2.2000    1.8250   -2.2830 o         1 MOL     -0.738954
     48 O8         -1.4250    2.3550   -4.2460 o         1 MOL     -0.738954
     49 H21        -2.8490    3.1070   -0.3930 hn        1 MOL      0.063230
     50 H22        -4.1080    5.2510   -2.0750 h1        1 MOL      0.092667
     51 H23        -2.0610    4.7450   -3.1890 hc        1 MOL      0.015176
     52 H24        -3.3430    4.2080   -4.0800 hc        1 MOL      0.015176
     53 N5         -5.3860    2.5990   -0.9010 n         1 MOL     -0.199233
     54 C17        -6.7960    2.4250   -0.7060 c3        1 MOL     -0.352594
     55 C18        -7.3530    1.1050   -1.1250 c         1 MOL      0.596493
     56 O9         -8.5460    0.8930   -1.1750 o         1 MOL     -0.594220
     57 H25        -4.7410    2.4180   -0.1550 hn        1 MOL      0.246225
     58 H26        -7.3980    3.1510   -1.2430 h1        1 MOL      0.142762
     59 H27        -7.0720    2.5150    0.3440 h1        1 MOL      0.142762
     60 N6         -6.4790    0.2110   -1.5620 n         1 MOL     -0.220893
     61 C19        -6.8030   -1.1170   -2.1440 c3        1 MOL     -0.038617
     62 C20        -7.0910   -2.1890   -1.1130 c         1 MOL      0.426626
     63 O10        -7.8780   -3.0560   -1.4480 o         1 MOL     -0.551703
     64 C21        -5.7450   -1.5300   -3.1880 c3        1 MOL     -0.216748
     65 C22        -4.3530   -1.4380   -2.6310 c         1 MOL      0.666636
     66 O11        -4.0200   -1.8080   -1.4580 o         1 MOL     -0.690541
     67 O12        -3.4450   -1.0060   -3.3550 o         1 MOL     -0.690541
     68 H28        -5.4990    0.3900   -1.3790 hn        1 MOL      0.172268
     69 H29        -7.7150   -0.9920   -2.7290 h1        1 MOL      0.111766
     70 H30        -5.8160   -0.9050   -4.0730 hc        1 MOL      0.077992
     71 H31        -5.9660   -2.5550   -3.5150 hc        1 MOL      0.077992
     72 N7         -6.6280   -2.0960    0.1340 n         1 MOL     -0.141102
     73 C23        -6.7090   -3.1150    1.1300 c3        1 MOL     -0.038817
     74 C24        -5.5710   -4.0720    1.1300 c         1 MOL      0.397899
     75 O13        -5.6660   -5.2190    1.7020 o         1 MOL     -0.577170
     76 H32        -6.1560   -1.2340    0.3830 hn        1 MOL      0.159127
     77 H33        -7.6570   -3.6200    0.9650 h1        1 MOL      0.067774
     78 H34        -6.8780   -2.6680    2.1120 h1        1 MOL      0.067774
     79 N8         -4.4180   -3.7000    0.6210 n         1 MOL     -0.029237
     80 C25        -3.0710   -4.4450    0.7620 c3        1 MOL     -0.235840
     81 C26        -1.7850   -3.5720    0.8580 c         1 MOL      0.758063
     82 O14        -1.9350   -2.3910    0.5540 o         1 MOL     -0.669206
     83 C27        -2.9130   -5.4370   -0.3880 c3        1 MOL      0.385047
     84 C28        -3.8730   -6.6510   -0.2390 c3        1 MOL     -0.462008
     85 O15        -3.1000   -4.8470   -1.6830 oh        1 MOL     -0.626787
     86 H35        -4.3720   -2.7690    0.2350 hn        1 MOL      0.069219
     87 H36        -3.1260   -5.1100    1.6250 h1        1 MOL      0.086195
     88 H37        -1.9200   -5.8570   -0.2880 h1        1 MOL      0.034151
     89 H38        -3.9790   -4.4500   -1.7010 ho        1 MOL      0.407912
     90 H39        -3.8430   -7.0950    0.7580 hc        1 MOL      0.122522
     91 H40        -4.8990   -6.3080   -0.4180 hc        1 MOL      0.122522
     92 H41        -3.5820   -7.4260   -0.9500 hc        1 MOL      0.122522
     93 N9         -0.6600   -4.1700    1.1990 n         1 MOL     -0.482847
     94 C29         0.6030   -3.4950    1.5330 c3        1 MOL      0.043818
     95 C30         1.7080   -3.9830    0.5330 c         1 MOL      0.455305
     96 O16         2.1150   -5.1440    0.5170 o         1 MOL     -0.549773
     97 C31         1.0270   -3.6730    3.0090 c3        1 MOL      0.008232
     98 C32        -0.0480   -3.3050    4.0680 c3        1 MOL      0.142836
     99 C33         2.3430   -3.1450    3.5120 c3        1 MOL     -0.031705
    100 C34        -0.3660   -1.8630    4.4300 c3        1 MOL     -0.253064
    101 H42        -0.7060   -5.1740    1.1940 hn        1 MOL      0.275684
    102 H43         0.5130   -2.4250    1.3060 h1        1 MOL      0.047673
    103 H44         1.2340   -4.7400    3.0980 hc        1 MOL      0.019895
    104 H45         0.3040   -3.8410    4.9570 hc        1 MOL     -0.037703
    105 H46        -0.9320   -3.8320    3.7230 hc        1 MOL     -0.037703
    106 H47         2.7570   -3.8240    4.2540 hc        1 MOL      0.006491
    107 H48         3.0610   -3.1240    2.6900 hc        1 MOL      0.006491
    108 H49         2.2570   -2.1330    3.9250 hc        1 MOL      0.006491
    109 H50         0.4290   -1.2870    4.9020 hc        1 MOL      0.076337
    110 H51        -0.6780   -1.4170    3.4870 hc        1 MOL      0.076337
    111 H52        -1.2090   -1.9100    5.1210 hc        1 MOL      0.076337
    112 N10         2.2360   -3.0820   -0.2730 n         1 MOL     -0.229784
    113 C35         3.4060   -3.2250   -1.1500 c3        1 MOL     -0.020779
    114 C36         4.6940   -2.9780   -0.3730 c         1 MOL      0.203085
    115 O17         4.6200   -2.3100    0.6490 o         1 MOL     -0.091496
    116 C37         3.3100   -2.2730   -2.3400 c3        1 MOL      0.240989
    117 C38         2.2460   -2.8110   -3.3380 c3        1 MOL     -0.106275
    118 O18         3.0750   -0.9330   -2.0320 oh        1 MOL     -0.627335
    119 H53         1.8040   -2.1720   -0.1890 hn        1 MOL      0.192976
    120 H54         3.3540   -4.2240   -1.5840 h1        1 MOL      0.072446
    121 H55         4.2800   -2.3410   -2.8350 h1        1 MOL      0.016281
    122 H56         2.2210   -0.9030   -1.5880 ho        1 MOL      0.393392
    123 H57         2.5610   -3.8120   -3.6370 hc        1 MOL      0.029503
    124 H58         1.2120   -2.7480   -2.9950 hc        1 MOL      0.029503
    125 H59         2.3460   -2.3030   -4.2940 hc        1 MOL      0.029503
    126 N11         5.7820   -3.3810   -1.0190 n         1 MOL     -0.303747
    127 C39         7.1260   -3.0220   -0.4700 c3        1 MOL     -0.034558
    128 C40         7.1230   -1.5200   -0.1010 c         1 MOL      0.292783
    129 O19         7.6670   -1.1940    0.9620 o         1 MOL     -0.481982
    130 C41         8.2890   -3.2410   -1.4640 c3        1 MOL      0.218081
    131 C42         8.7580   -4.6700   -1.8100 c3        1 MOL     -0.330891
    132 O20         7.8450   -2.6340   -2.6810 oh        1 MOL     -0.665708
    133 H60         5.6420   -3.8170   -1.9190 hn        1 MOL      0.286585
    134 H61         7.2550   -3.6440    0.4170 h1        1 MOL      0.122250
    135 H62         9.1490   -2.7110   -1.0540 h1        1 MOL      0.076520
    136 H63         8.4570   -2.9220   -3.3640 ho        1 MOL      0.426365
    137 H64         9.6100   -4.5910   -2.4840 hc        1 MOL      0.100880
    138 H65         9.0690   -5.2840   -0.9630 hc        1 MOL      0.100880
    139 H66         7.9640   -5.2020   -2.3530 hc        1 MOL      0.100880
    140 N12         6.6240   -0.6780   -1.0200 n         1 MOL     -0.137280
    141 C43         6.6630    0.7900   -0.8990 c3        1 MOL     -0.149514
    142 C44         5.8290    1.3520    0.2380 c         1 MOL      0.585668
    143 O21         5.8700    2.5580    0.3840 o         1 MOL     -0.570620
    144 C45         6.1120    1.3320   -2.2200 c3        1 MOL     -0.325990
    145 C46         6.5480    2.8270   -2.3360 c3        1 MOL      0.281985
    146 C47         6.2980    3.2360   -3.8000 c3        1 MOL     -0.006946
    147 C48         6.8240    4.6480   -4.2250 c3        1 MOL     -0.113543
    148 N13         8.2060    4.9150   -3.6290 n4        1 MOL     -0.399985
    149 H67         6.4000   -1.0900   -1.9180 hn        1 MOL      0.267624
    150 H68         7.6610    1.2250   -0.7760 h1        1 MOL      0.096724
    151 H69         5.0370    1.1640   -2.1270 hc        1 MOL      0.115074
    152 H70         6.4900    0.7410   -3.0510 hc        1 MOL      0.115074
    153 H71         7.6030    2.9680   -2.1380 hc        1 MOL     -0.029835
    154 H72         6.0060    3.4810   -1.6550 hc        1 MOL     -0.029835
    155 H73         5.2330    3.1630   -4.0370 hc        1 MOL      0.033576
    156 H74         6.8010    2.5110   -4.4250 hc        1 MOL      0.033576
    157 H75         6.1540    5.4540   -3.9090 hx        1 MOL      0.133474
    158 H76         6.8340    4.7190   -5.3110 hx        1 MOL      0.133474
    159 H77         8.5080    5.8660   -3.7690 hn        1 MOL      0.334961
    160 H78         8.3020    4.8140   -2.6380 hn        1 MOL      0.334961
    161 H79         8.8150    4.3290   -4.1810 hn        1 MOL      0.334961
    162 N14         4.9930    0.5200    0.9460 n         1 MOL     -0.360974
    163 C49         4.1190    0.9780    2.0860 c3        1 MOL      0.030697
    164 C50         4.5160    0.2880    3.4040 c         1 MOL      0.445484
    165 O22         4.5640    0.9300    4.4580 o         1 MOL     -0.540612
    166 C51         2.6400    0.6000    1.7280 c3        1 MOL      0.068852
    167 C52         2.1300    1.2480    0.4730 c3        1 MOL      0.038645
    168 C53         0.8330    0.5930   -0.0340 c         1 MOL      0.647530
    169 O23         0.9370   -0.6070   -0.4690 o         1 MOL     -0.688101
    170 O24        -0.2500    1.2070   -0.0430 o         1 MOL     -0.688101
    171 H80         4.8610   -0.4300    0.6020 hn        1 MOL      0.128988
    172 H81         4.2400    2.0380    2.3060 h1        1 MOL      0.066383
    173 H82         1.9650    0.9100    2.5330 hc        1 MOL      0.007367
    174 H83         2.7530   -0.4700    1.5800 hc        1 MOL      0.007367
    175 H84         2.8430    1.2140   -0.3480 hc        1 MOL     -0.008008
    176 H85         1.8330    2.2660    0.7330 hc        1 MOL     -0.008008
    177 N15         4.8930   -1.0230    3.2970 n         1 MOL     -0.025911
    178 C54         5.6000   -1.8060    4.2800 c3        1 MOL     -0.218775
    179 H86         5.3210   -2.8540    4.1770 h1        1 MOL      0.087772
    180 H87         6.6740   -1.7000    4.1250 h1        1 MOL      0.087772
    181 H88         5.3410   -1.4560    5.2790 h1        1 MOL      0.087772
    182 H89         4.6960   -1.5020    2.4360 hn        1 MOL     -0.021054
    183 Ca1        -1.7820   -0.5400   -1.2830 Ca        1 MOL      1.731225
    184 O25        -0.3520   -0.0260   -3.4570 oh        1 MOL     -0.886429
    185 H90         0.1190   -0.0900   -4.2860 ho        1 MOL      0.415940
    186 H91        -0.7190    0.8550   -3.4580 ho        1 MOL      0.415940
    187 O26        -1.2730   -2.9580   -2.4280 oh        1 MOL     -0.886429
    188 H92        -1.1870   -2.9960   -3.3800 ho        1 MOL      0.415940
    189 H93        -2.0210   -3.5280   -2.2230 ho        1 MOL      0.415940
@<TRIPOS>BOND
     1    1    2 1   
     2    1    4 1   
     3    1    5 1   
     4    1    6 1   
     5    2    3 2   
     6    2    7 1   
     7    7    8 1   
     8    7   15 1   
     9    8    9 1   
    10    8   11 1   
    11    8   16 1   
    12    9   10 2   
    13    9   19 1   
    14   11   12 1   
    15   11   17 1   
    16   11   18 1   
    17   12   13 1   
    18   12   14 1   
    19   19   20 1   
    20   19   28 1   
    21   20   21 1   
    22   20   23 1   
    23   20   29 1   
    24   21   22 2   
    25   21   41 1   
    26   23   24 1   
    27   23   30 1   
    28   23   31 1   
    29   24   25 1   
    30   24   32 1   
    31   24   33 1   
    32   25   26 1   
    33   25   34 1   
    34   25   35 1   
    35   26   27 1   
    36   26   36 1   
    37   26   37 1   
    38   27   38 1   
    39   27   39 1   
    40   27   40 1   
    41   41   42 1   
    42   41   49 1   
    43   42   43 1   
    44   42   45 1   
    45   42   50 1   
    46   43   44 2   
    47   43   53 1   
    48   45   46 1   
    49   45   51 1   
    50   45   52 1   
    51   46   47 1   
    52   46   48 1   
    53   53   54 1   
    54   53   57 1   
    55   54   55 1   
    56   54   58 1   
    57   54   59 1   
    58   55   56 2   
    59   55   60 1   
    60   60   61 1   
    61   60   68 1   
    62   61   62 1   
    63   61   64 1   
    64   61   69 1   
    65   62   63 2   
    66   62   72 1   
    67   64   65 1   
    68   64   70 1   
    69   64   71 1   
    70   65   66 1   
    71   65   67 1   
    72   72   73 1   
    73   72   76 1   
    74   73   74 1   
    75   73   77 1   
    76   73   78 1   
    77   74   75 2   
    78   74   79 1   
    79   79   80 1   
    80   79   86 1   
    81   80   81 1   
    82   80   83 1   
    83   80   87 1   
    84   81   82 2   
    85   81   93 1   
    86   83   84 1   
    87   83   85 1   
    88   83   88 1   
    89   84   90 1   
    90   84   91 1   
    91   84   92 1   
    92   85   89 1   
    93   93   94 1   
    94   93  101 1   
    95   94   95 1   
    96   94   97 1   
    97   94  102 1   
    98   95   96 2   
    99   95  112 1   
   100   97   98 1   
   101   97   99 1   
   102   97  103 1   
   103   98  100 1   
   104   98  104 1   
   105   98  105 1   
   106   99  106 1   
   107   99  107 1   
   108   99  108 1   
   109  100  109 1   
   110  100  110 1   
   111  100  111 1   
   112  112  113 1   
   113  112  119 1   
   114  113  114 1   
   115  113  116 1   
   116  113  120 1   
   117  114  115 2   
   118  114  126 1   
   119  116  117 1   
   120  116  118 1   
   121  116  121 1   
   122  117  123 1   
   123  117  124 1   
   124  117  125 1   
   125  118  122 1   
   126  126  127 1   
   127  126  133 1   
   128  127  128 1   
   129  127  130 1   
   130  127  134 1   
   131  128  129 2   
   132  128  140 1   
   133  130  131 1   
   134  130  132 1   
   135  130  135 1   
   136  131  137 1   
   137  131  138 1   
   138  131  139 1   
   139  132  136 1   
   140  140  141 1   
   141  140  149 1   
   142  141  142 1   
   143  141  144 1   
   144  141  150 1   
   145  142  143 2   
   146  142  162 1   
   147  144  145 1   
   148  144  151 1   
   149  144  152 1   
   150  145  146 1   
   151  145  153 1   
   152  145  154 1   
   153  146  147 1   
   154  146  155 1   
   155  146  156 1   
   156  147  148 1   
   157  147  157 1   
   158  147  158 1   
   159  148  159 1   
   160  148  160 1   
   161  148  161 1   
   162  162  163 1   
   163  162  171 1   
   164  163  164 1   
   165  163  166 1   
   166  163  172 1   
   167  164  165 2   
   168  164  177 1   
   169  166  167 1   
   170  166  173 1   
   171  166  174 1   
   172  167  168 1   
   173  167  175 1   
   174  167  176 1   
   175  168  169 1   
   176  168  170 1   
   177  177  178 1   
   178  177  182 1   
   179  178  179 1   
   180  178  180 1   
   181  178  181 1   
   182  184  185 1   
   183  184  186 1   
   184  187  188 1   
   185  187  189 1   
@<TRIPOS>SUBSTRUCTURE
     1 MOL         1 TEMP              0 ****  ****    0 ROOT
