@<TRIPOS>MOLECULE
MOL
  176   174     1     0     0
SMALL
resp


@<TRIPOS>ATOM
      1 C1          1.5520    3.2860    4.7610 c3        1 MOL     -0.231078
      2 C2          0.6760    3.0500    3.6420 c         1 MOL      0.695801
      3 O1          1.1380    2.9570    2.4980 o         1 MOL     -0.587568
      4 H1          1.5820    2.3980    5.3920 hc        1 MOL      0.068766
      5 H2          2.5560    3.5060    4.3970 hc        1 MOL      0.068766
      6 H3          1.1820    4.1310    5.3410 hc        1 MOL      0.068766
      7 N1         -0.6300    2.7570    3.7860 n         1 MOL     -0.635486
      8 C3         -1.5360    2.3200    2.7300 c3        1 MOL      0.062752
      9 C4         -2.1100    3.4470    1.8590 c         1 MOL      0.678864
     10 O2         -3.2990    3.7220    1.9010 o         1 MOL     -0.510546
     11 C5         -2.6060    1.3320    3.2680 c3        1 MOL     -0.148194
     12 C6         -3.5030    0.6810    2.1410 c         1 MOL      0.621031
     13 O3         -4.6420    0.2820    2.5380 o         1 MOL     -0.656163
     14 O4         -3.0410    0.4590    1.0060 o         1 MOL     -0.656163
     15 H4         -1.0270    2.6140    4.7030 hn        1 MOL      0.327727
     16 H5         -0.8530    1.7360    2.1110 h1        1 MOL      0.066526
     17 H6         -3.1940    1.9100    3.9870 hc        1 MOL      0.045881
     18 H7         -2.2090    0.4700    3.8120 hc        1 MOL      0.045881
     19 N2         -1.2590    4.2470    1.2250 n         1 MOL     -0.489323
     20 C7         -1.5880    5.5120    0.5800 c3        1 MOL     -0.020876
     21 C8         -2.5490    5.4070   -0.5650 c         1 MOL      0.400137
     22 O5         -3.1620    6.4020   -0.9510 o         1 MOL     -0.553118
     23 C9         -0.2220    6.1800    0.1670 c3        1 MOL     -0.102941
     24 C10         0.5450    5.4100   -0.9170 c3        1 MOL      0.178263
     25 C11         1.6900    6.1740   -1.4680 c3        1 MOL      0.026295
     26 C12         2.6910    5.2200   -2.0530 c3        1 MOL      0.166944
     27 N3          3.7000    5.8840   -2.8850 n4        1 MOL     -0.453902
     28 H8         -0.3290    3.8690    1.0750 hn        1 MOL      0.311319
     29 H9         -2.0200    6.1130    1.3850 h1        1 MOL      0.122076
     30 H10         0.3580    6.4260    1.0580 hc        1 MOL      0.045111
     31 H11        -0.6130    7.1220   -0.2340 hc        1 MOL      0.045111
     32 H12        -0.0300    5.0820   -1.7820 hc        1 MOL     -0.041162
     33 H13         0.9220    4.5020   -0.4400 hc        1 MOL     -0.041162
     34 H14         2.1680    6.8160   -0.7280 hc        1 MOL     -0.009529
     35 H15         1.3470    6.8680   -2.2380 hc        1 MOL     -0.009529
     36 H16         2.2390    4.5080   -2.7340 hx        1 MOL      0.055568
     37 H17         3.1650    4.5900   -1.3000 hx        1 MOL      0.055568
     38 H18         4.2810    5.1750   -3.3210 hn        1 MOL      0.343360
     39 H19         3.2250    6.4090   -3.6110 hn        1 MOL      0.343360
     40 H20         4.2400    6.5970   -2.3980 hn        1 MOL      0.343360
     41 N4         -2.8250    4.2530   -1.0820 n         1 MOL     -0.107761
     42 C13        -3.8450    4.0740   -2.1650 c3        1 MOL     -0.037510
     43 C14        -5.1370    3.5780   -1.5200 c         1 MOL      0.476168
     44 O6         -6.2060    3.7010   -2.1750 o         1 MOL     -0.569950
     45 C15        -3.3120    3.1780   -3.2610 c3        1 MOL     -0.173602
     46 C16        -2.7210    1.8370   -2.7770 c         1 MOL      0.748622
     47 O7         -3.2320    1.3160   -1.7910 o         1 MOL     -0.796601
     48 O8         -1.7010    1.2230   -3.2820 o         1 MOL     -0.796601
     49 H21        -2.4610    3.4480   -0.5810 hn        1 MOL      0.122448
     50 H22        -4.1310    5.0420   -2.5620 h1        1 MOL      0.117556
     51 H23        -2.4990    3.6540   -3.8200 hc        1 MOL      0.056120
     52 H24        -4.0320    2.9500   -4.0450 hc        1 MOL      0.056120
     53 N5         -5.1230    3.0200   -0.2820 n         1 MOL     -0.040789
     54 C17        -6.3710    2.6290    0.3440 c3        1 MOL     -0.352789
     55 C18        -6.8750    1.1910    0.0480 c         1 MOL      0.598635
     56 O9         -7.9030    0.7540    0.5980 o         1 MOL     -0.575324
     57 H25        -4.2530    2.9860    0.2320 hn        1 MOL      0.061143
     58 H26        -7.1300    3.3340    0.0260 h1        1 MOL      0.153590
     59 H27        -6.2440    2.6880    1.4230 h1        1 MOL      0.153590
     60 N6         -6.1060    0.3920   -0.6980 n         1 MOL     -0.429680
     61 C19        -6.4450   -1.0000   -1.1110 c3        1 MOL      0.042053
     62 C20        -6.3920   -2.1320   -0.0740 c         1 MOL      0.421191
     63 O10        -6.6860   -3.2650   -0.3620 o         1 MOL     -0.546612
     64 C21        -5.7320   -1.3800   -2.4330 c3        1 MOL     -0.188055
     65 C22        -4.2560   -1.8150   -2.3810 c         1 MOL      0.753487
     66 N7         -3.6840   -2.2380   -3.4810 n         1 MOL     -0.807708
     67 O11        -3.6900   -1.7430   -1.2840 o         1 MOL     -0.597219
     68 H28        -5.3820    0.7990   -1.2660 hn        1 MOL      0.321760
     69 H29        -7.4890   -0.9380   -1.3980 h1        1 MOL      0.092933
     70 H30        -5.9300   -0.6180   -3.1860 hc        1 MOL      0.059131
     71 H31        -6.2440   -2.2820   -2.7530 hc        1 MOL      0.059131
     72 H32        -4.1130   -2.1160   -4.3820 hn        1 MOL      0.365804
     73 H33        -2.7940   -2.7180   -3.4410 hn        1 MOL      0.365804
     74 N8         -5.9050   -1.8500    1.1480 n         1 MOL     -0.120835
     75 C23        -5.8480   -2.7210    2.3450 c3        1 MOL     -0.372144
     76 C24        -4.5550   -3.5300    2.5330 c         1 MOL      0.629998
     77 O12        -4.4510   -4.3380    3.4120 o         1 MOL     -0.577178
     78 H34        -5.6270   -0.8910    1.3060 hn        1 MOL      0.272033
     79 H35        -6.7720   -3.2890    2.4250 h1        1 MOL      0.158494
     80 H36        -5.8620   -2.0890    3.2270 h1        1 MOL      0.158494
     81 N9         -3.5630   -3.3590    1.6560 n         1 MOL     -0.316340
     82 C25        -2.2490   -4.0860    1.6920 c3        1 MOL      0.048184
     83 C26        -1.0720   -3.1090    1.5140 c         1 MOL      0.593022
     84 O13        -1.1330   -2.1190    0.7890 o         1 MOL     -0.678202
     85 C27        -2.2440   -5.3350    0.8690 c3        1 MOL     -0.182234
     86 C28        -2.0960   -5.1130   -0.6120 ca        1 MOL      0.043874
     87 C29        -0.8790   -4.8250   -1.2710 ca        1 MOL     -0.146612
     88 C30        -3.2520   -5.2600   -1.3630 ca        1 MOL     -0.146612
     89 C31        -0.8360   -4.8610   -2.6430 ca        1 MOL     -0.276094
     90 C32        -3.2560   -5.2180   -2.7080 ca        1 MOL     -0.276094
     91 C33        -2.0170   -5.0760   -3.3740 ca        1 MOL      0.396253
     92 O14        -2.0450   -5.2350   -4.7210 oh        1 MOL     -0.582120
     93 H37        -3.7910   -2.7010    0.9220 hn        1 MOL      0.212649
     94 H38        -2.1860   -4.4730    2.7100 h1        1 MOL      0.046741
     95 H39        -3.1910   -5.8490    1.0320 hc        1 MOL      0.091167
     96 H40        -1.3770   -5.9440    1.1410 hc        1 MOL      0.091167
     97 H41        -0.0180   -4.6430   -0.6440 ha        1 MOL      0.158246
     98 H42        -4.2110   -5.4390   -0.9110 ha        1 MOL      0.158246
     99 H43         0.1180   -4.9010   -3.1570 ha        1 MOL      0.137339
    100 H44        -4.1800   -5.3680   -3.2380 ha        1 MOL      0.137339
    101 H45        -2.9060   -5.4380   -5.0810 ho        1 MOL      0.407602
    102 N10         0.0120   -3.3750    2.2170 n         1 MOL     -0.479993
    103 C34         1.2570   -2.6650    2.2020 c3        1 MOL     -0.026789
    104 C35         2.2230   -3.3840    1.2640 c         1 MOL      0.546735
    105 O15         2.3180   -4.6020    1.3540 o         1 MOL     -0.553288
    106 C36         1.9200   -2.4440    3.5870 c3        1 MOL      0.185277
    107 C37         1.0750   -1.4820    4.5050 c3        1 MOL     -0.051644
    108 C38         3.3250   -1.7870    3.3690 c3        1 MOL     -0.307895
    109 C39         1.5150   -1.4360    5.9570 c3        1 MOL     -0.080727
    110 H46        -0.0720   -4.2570    2.7090 hn        1 MOL      0.312966
    111 H47         1.0900   -1.6870    1.7720 h1        1 MOL      0.138266
    112 H48         1.9670   -3.3930    4.1150 hc        1 MOL      0.013048
    113 H49         0.1110   -1.9750    4.6020 hc        1 MOL      0.032915
    114 H50         1.0910   -0.4500    4.1600 hc        1 MOL      0.032915
    115 H51         3.7770   -1.3800    4.2750 hc        1 MOL      0.064169
    116 H52         4.1070   -2.4890    3.0760 hc        1 MOL      0.064169
    117 H53         3.2890   -1.0060    2.6050 hc        1 MOL      0.064169
    118 H54         2.5030   -0.9730    5.9340 hc        1 MOL      0.022108
    119 H55         0.8400   -0.8640    6.5930 hc        1 MOL      0.022108
    120 H56         1.6960   -2.3980    6.4340 hc        1 MOL      0.022108
    121 N11         2.7500   -2.6280    0.2910 n         1 MOL     -0.318688
    122 C40         3.8670   -3.0640   -0.5600 c3        1 MOL      0.058891
    123 C41         5.3010   -2.6570   -0.0600 c         1 MOL      0.450070
    124 O16         5.4460   -1.7080    0.7630 o         1 MOL     -0.440051
    125 C42         3.7300   -2.5400   -2.0040 c3        1 MOL     -0.146745
    126 O17         4.0350   -1.1100   -2.0930 oh        1 MOL     -0.398717
    127 H57         2.5130   -1.6510    0.1900 hn        1 MOL      0.202525
    128 H58         3.8940   -4.1450   -0.6220 h1        1 MOL      0.065253
    129 H59         2.7170   -2.6810   -2.3690 h1        1 MOL      0.100622
    130 H60         4.2680   -3.1170   -2.7530 h1        1 MOL      0.100622
    131 H61         3.4150   -0.7550   -2.7320 ho        1 MOL      0.358114
    132 N12         6.3190   -3.2550   -0.6130 n         1 MOL     -0.384600
    133 C43         7.7340   -2.8230   -0.6210 c3        1 MOL      0.133317
    134 C44         7.9950   -1.3270   -0.9390 c         1 MOL      0.444807
    135 O18         8.7390   -0.6320   -0.2340 o         1 MOL     -0.498622
    136 C45         8.5010   -3.6880   -1.6200 c3        1 MOL     -0.245484
    137 H62         6.0060   -4.0120   -1.2080 hn        1 MOL      0.267129
    138 H63         8.1910   -3.0360    0.3550 h1        1 MOL      0.087810
    139 H64         7.9490   -3.6760   -2.5640 hc        1 MOL      0.077902
    140 H65         9.4020   -3.2040   -2.0120 hc        1 MOL      0.077902
    141 H66         8.6610   -4.7430   -1.3840 hc        1 MOL      0.077902
    142 N13         7.2680   -0.8630   -1.9900 n         1 MOL     -0.354763
    143 C46         7.4770    0.5110   -2.4420 c3        1 MOL      0.178088
    144 C47         6.6150    1.5120   -1.5520 c         1 MOL      0.339182
    145 O19         7.1800    2.5680   -1.3530 o         1 MOL     -0.498567
    146 C48         7.2500    0.6990   -3.9410 c3        1 MOL     -0.246679
    147 H67         6.5050   -1.4370   -2.3180 hn        1 MOL      0.226113
    148 H68         8.5270    0.7860   -2.3180 h1        1 MOL      0.103372
    149 H69         7.6540    1.6730   -4.1940 hc        1 MOL      0.061794
    150 H70         7.8040   -0.0740   -4.4590 hc        1 MOL      0.061794
    151 H71         6.1760    0.5750   -4.1190 hc        1 MOL      0.061794
    152 N14         5.5190    1.0870   -0.8690 n         1 MOL      0.066245
    153 C49         4.9200    1.7530    0.2580 c3        1 MOL     -0.466067
    154 C50         5.8590    1.7770    1.4620 c         1 MOL      0.603659
    155 O20         6.0690    2.7670    2.1270 o         1 MOL     -0.578014
    156 C51         3.5140    1.2030    0.6900 c3        1 MOL      0.164172
    157 C52         2.4610    1.8360   -0.2610 c3        1 MOL     -0.108716
    158 C53         1.0860    1.1850   -0.2640 c         1 MOL      0.734456
    159 O21         0.0160    1.8070   -0.3970 o         1 MOL     -0.769983
    160 O22         0.9040   -0.0620   -0.2360 o         1 MOL     -0.769983
    161 H72         5.1690    0.1520   -0.9740 hn        1 MOL     -0.112984
    162 H73         4.8030    2.8060   -0.0120 h1        1 MOL      0.129050
    163 H74         3.3540    1.5660    1.7120 hc        1 MOL      0.044079
    164 H75         3.4650    0.1200    0.7360 hc        1 MOL      0.044079
    165 H76         2.7230    1.9520   -1.3190 hc        1 MOL      0.012267
    166 H77         2.3440    2.8680    0.0730 hc        1 MOL      0.012267
    167 N15         6.5790    0.7260    1.7410 n         1 MOL     -0.104904
    168 C54         7.5260    0.7030    2.8870 c3        1 MOL     -0.311110
    169 H78         7.3520   -0.1930    3.4830 h1        1 MOL      0.121682
    170 H79         8.5500    0.6960    2.5130 h1        1 MOL      0.121682
    171 H80         7.3700    1.5860    3.5050 h1        1 MOL      0.121682
    172 H81         6.4910   -0.0270    1.0750 hn        1 MOL      0.166882
    173 Ca1        -1.5470   -0.3050   -0.8730 Ca        1 MOL      1.757708
    174 O23        -0.1330   -1.5570   -2.7100 oh        1 MOL     -0.864099
    175 H82        -0.1110   -1.8180   -3.6290 ho        1 MOL      0.425643
    176 H83         0.7110   -1.1180   -2.5670 ho        1 MOL      0.425643
@<TRIPOS>BOND
     1    1    2 1   
     2    1    4 1   
     3    1    5 1   
     4    1    6 1   
     5    2    3 2   
     6    2    7 1   
     7    7    8 1   
     8    7   15 1   
     9    8    9 1   
    10    8   11 1   
    11    8   16 1   
    12    9   10 2   
    13    9   19 1   
    14   11   12 1   
    15   11   17 1   
    16   11   18 1   
    17   12   13 1   
    18   12   14 1   
    19   19   20 1   
    20   19   28 1   
    21   20   21 1   
    22   20   23 1   
    23   20   29 1   
    24   21   22 2   
    25   21   41 1   
    26   23   24 1   
    27   23   30 1   
    28   23   31 1   
    29   24   25 1   
    30   24   32 1   
    31   24   33 1   
    32   25   26 1   
    33   25   34 1   
    34   25   35 1   
    35   26   27 1   
    36   26   36 1   
    37   26   37 1   
    38   27   38 1   
    39   27   39 1   
    40   27   40 1   
    41   41   42 1   
    42   41   49 1   
    43   42   43 1   
    44   42   45 1   
    45   42   50 1   
    46   43   44 2   
    47   43   53 1   
    48   45   46 1   
    49   45   51 1   
    50   45   52 1   
    51   46   47 1   
    52   46   48 1   
    53   53   54 1   
    54   53   57 1   
    55   54   55 1   
    56   54   58 1   
    57   54   59 1   
    58   55   56 2   
    59   55   60 1   
    60   60   61 1   
    61   60   68 1   
    62   61   62 1   
    63   61   64 1   
    64   61   69 1   
    65   62   63 2   
    66   62   74 1   
    67   64   65 1   
    68   64   70 1   
    69   64   71 1   
    70   65   66 1   
    71   65   67 2   
    72   66   72 1   
    73   66   73 1   
    74   74   75 1   
    75   74   78 1   
    76   75   76 1   
    77   75   79 1   
    78   75   80 1   
    79   76   77 2   
    80   76   81 1   
    81   81   82 1   
    82   81   93 1   
    83   82   83 1   
    84   82   85 1   
    85   82   94 1   
    86   83   84 2   
    87   83  102 1   
    88   85   86 1   
    89   85   95 1   
    90   85   96 1   
    91   86   87 ar  
    92   86   88 ar  
    93   87   89 ar  
    94   87   97 1   
    95   88   90 ar  
    96   88   98 1   
    97   89   91 ar  
    98   89   99 1   
    99   90   91 ar  
   100   90  100 1   
   101   91   92 1   
   102   92  101 1   
   103  102  103 1   
   104  102  110 1   
   105  103  104 1   
   106  103  106 1   
   107  103  111 1   
   108  104  105 2   
   109  104  121 1   
   110  106  107 1   
   111  106  108 1   
   112  106  112 1   
   113  107  109 1   
   114  107  113 1   
   115  107  114 1   
   116  108  115 1   
   117  108  116 1   
   118  108  117 1   
   119  109  118 1   
   120  109  119 1   
   121  109  120 1   
   122  121  122 1   
   123  121  127 1   
   124  122  123 1   
   125  122  125 1   
   126  122  128 1   
   127  123  124 2   
   128  123  132 1   
   129  125  126 1   
   130  125  129 1   
   131  125  130 1   
   132  126  131 1   
   133  132  133 1   
   134  132  137 1   
   135  133  134 1   
   136  133  136 1   
   137  133  138 1   
   138  134  135 2   
   139  134  142 1   
   140  136  139 1   
   141  136  140 1   
   142  136  141 1   
   143  142  143 1   
   144  142  147 1   
   145  143  144 1   
   146  143  146 1   
   147  143  148 1   
   148  144  145 2   
   149  144  152 1   
   150  146  149 1   
   151  146  150 1   
   152  146  151 1   
   153  152  153 1   
   154  152  161 1   
   155  153  154 1   
   156  153  156 1   
   157  153  162 1   
   158  154  155 2   
   159  154  167 1   
   160  156  157 1   
   161  156  163 1   
   162  156  164 1   
   163  157  158 1   
   164  157  165 1   
   165  157  166 1   
   166  158  159 1   
   167  158  160 1   
   168  167  168 1   
   169  167  172 1   
   170  168  169 1   
   171  168  170 1   
   172  168  171 1   
   173  174  175 1   
   174  174  176 1   
@<TRIPOS>SUBSTRUCTURE
     1 MOL         1 TEMP              0 ****  ****    0 ROOT
