@<TRIPOS>MOLECULE
MOL
  189   185     1     0     0
SMALL
resp


@<TRIPOS>ATOM
      1 C1          1.6250   -3.1630    6.2500 c3        1 MOL     -0.349432
      2 C2          1.5180   -2.8880    4.7650 c         1 MOL      0.879932
      3 O1          1.2210   -1.8140    4.3280 o         1 MOL     -0.662902
      4 H1          2.6110   -3.5670    6.4750 hc        1 MOL      0.074270
      5 H2          1.4780   -2.2350    6.8030 hc        1 MOL      0.074270
      6 H3          0.8620   -3.8850    6.5420 hc        1 MOL      0.074270
      7 N1          1.9260   -3.8660    3.9800 n         1 MOL     -0.735749
      8 C3          2.3420   -3.6200    2.6070 c3        1 MOL      0.159832
      9 C4          2.1640   -4.9110    1.7010 c         1 MOL      0.593173
     10 O2          2.0960   -6.0530    2.2150 o         1 MOL     -0.586159
     11 C5          3.9460   -3.4620    2.6890 c3        1 MOL     -0.240103
     12 C6          4.5830   -3.0410    1.3720 c         1 MOL      0.679380
     13 O3          3.8180   -2.4010    0.6110 o         1 MOL     -0.649892
     14 O4          5.7770   -3.3150    1.1260 o         1 MOL     -0.649892
     15 H4          2.3190   -4.6850    4.4130 hn        1 MOL      0.346085
     16 H5          1.8650   -2.7660    2.1260 h1        1 MOL      0.181174
     17 H6          4.3380   -4.3970    3.1040 hc        1 MOL      0.034900
     18 H7          4.1270   -2.6120    3.3410 hc        1 MOL      0.034900
     19 N2          2.1160   -4.6310    0.3570 n         1 MOL     -0.267145
     20 C7          1.9650   -5.5110   -0.8120 c3        1 MOL     -0.015122
     21 C8          3.0290   -5.2960   -1.8520 c         1 MOL      0.585439
     22 O5          3.3270   -6.2550   -2.5730 o         1 MOL     -0.583938
     23 C9          0.5190   -5.3530   -1.2730 c3        1 MOL      0.152698
     24 C10        -0.4540   -5.8530   -0.1900 c3        1 MOL      0.352375
     25 C11         0.1200   -5.9320   -2.5990 c3        1 MOL     -0.433463
     26 C12        -0.3730   -7.3750    0.1420 c3        1 MOL     -0.240704
     27 H8          2.2280   -3.6580    0.1110 hn        1 MOL     -0.113210
     28 H9          2.0060   -6.5560   -0.4800 h1        1 MOL      0.035525
     29 H10         0.3250   -4.2850   -1.2480 hc        1 MOL      0.048485
     30 H11        -1.4680   -5.4990   -0.4030 hc        1 MOL     -0.096563
     31 H12        -0.3230   -5.2520    0.7090 hc        1 MOL     -0.096563
     32 H13         0.5020   -6.9340   -2.7700 hc        1 MOL      0.094529
     33 H14        -0.9430   -5.8260   -2.8370 hc        1 MOL      0.094529
     34 H15         0.6300   -5.2570   -3.2860 hc        1 MOL      0.094529
     35 H16        -0.0350   -8.0270   -0.6630 hc        1 MOL      0.037534
     36 H17         0.1320   -7.4730    1.0950 hc        1 MOL      0.037534
     37 H18        -1.3720   -7.7410    0.3650 hc        1 MOL      0.037534
     38 N3          3.6580   -4.0890   -1.9540 n         1 MOL     -0.467451
     39 C13         4.4150   -3.6140   -3.1480 c3        1 MOL      0.105750
     40 C14         5.7670   -2.9090   -2.8770 c         1 MOL      0.374918
     41 O6          6.6510   -2.9530   -3.7140 o         1 MOL     -0.553756
     42 C15         3.5780   -2.6920   -4.0420 c3        1 MOL     -0.238722
     43 C16         2.9450   -1.4540   -3.3140 c         1 MOL      0.719803
     44 O7          3.3870   -1.1740   -2.1730 o         1 MOL     -0.689892
     45 O8          2.0010   -0.8930   -3.8880 o         1 MOL     -0.689892
     46 H19         3.3550   -3.3530   -1.3300 hn        1 MOL      0.451234
     47 H20         4.6920   -4.5230   -3.6800 h1        1 MOL      0.073447
     48 H21         2.8640   -3.3680   -4.4970 hc        1 MOL      0.056707
     49 H22         4.1590   -2.3070   -4.8850 hc        1 MOL      0.056707
     50 N4          6.0220   -2.3890   -1.6480 n         1 MOL     -0.105059
     51 C17         7.3280   -1.7510   -1.3380 c3        1 MOL      0.022604
     52 C18         7.4560   -0.3100   -1.8200 c         1 MOL      0.247075
     53 O9          8.5870    0.2080   -2.0390 o         1 MOL     -0.576658
     54 H23         5.2770   -2.3100   -0.9720 hn        1 MOL     -0.007461
     55 H24         8.1890   -2.3530   -1.6210 h1        1 MOL      0.059343
     56 H25         7.4180   -1.7920   -0.2470 h1        1 MOL      0.059343
     57 N5          6.3720    0.3120   -2.2500 n         1 MOL      0.126842
     58 C19         6.3300    1.6120   -2.9310 c3        1 MOL     -0.303715
     59 C20         6.7720    2.7240   -1.9670 c         1 MOL      0.598816
     60 O10         7.1120    3.7950   -2.4350 o         1 MOL     -0.581183
     61 C21         4.9820    1.9690   -3.5130 c3        1 MOL      0.002607
     62 C22         3.8250    2.1290   -2.5190 c         1 MOL      0.627110
     63 O11         3.9900    1.6790   -1.3180 o         1 MOL     -0.673035
     64 O12         2.7760    2.6390   -2.9590 o         1 MOL     -0.673035
     65 H26         5.5600   -0.2860   -2.2090 hn        1 MOL      0.107489
     66 H27         7.0240    1.6660   -3.7760 h1        1 MOL      0.129499
     67 H28         4.7440    1.2900   -4.3310 hc        1 MOL      0.036634
     68 H29         5.0720    2.8790   -4.0980 hc        1 MOL      0.036634
     69 N6          6.7170    2.5780   -0.6320 n         1 MOL     -0.353151
     70 C23         7.0550    3.6240    0.2710 c3        1 MOL     -0.108400
     71 C24         5.9160    4.4310    0.8440 c         1 MOL      0.554291
     72 O13         6.2400    5.4120    1.4990 o         1 MOL     -0.604018
     73 H30         6.2400    1.7550   -0.2980 hn        1 MOL      0.245871
     74 H31         7.7820    4.2990   -0.1680 h1        1 MOL      0.085039
     75 H32         7.5760    3.2310    1.1400 h1        1 MOL      0.085039
     76 N7          4.6320    4.0280    0.7380 n         1 MOL     -0.344491
     77 C25         3.3730    4.5980    1.3070 c3        1 MOL      0.005178
     78 C26         2.3920    3.4830    1.6850 c         1 MOL      0.355752
     79 O14         2.4330    2.4420    1.0200 o         1 MOL     -0.373629
     80 C27         2.7520    5.6570    0.3980 c3        1 MOL      0.037495
     81 C28         3.5150    6.9240    0.1890 c3        1 MOL     -0.358530
     82 C29         2.6310    7.9810   -0.4110 c         1 MOL      0.696682
     83 N8          2.4510    7.9760   -1.7340 n         1 MOL     -0.833353
     84 O15         2.0790    8.8270    0.2920 o         1 MOL     -0.586444
     85 H33         4.4370    3.2840    0.0770 hn        1 MOL      0.221883
     86 H34         3.6850    5.1010    2.2250 h1        1 MOL      0.059814
     87 H35         1.8390    5.9640    0.9170 hc        1 MOL      0.052014
     88 H36         2.3960    5.2190   -0.5410 hc        1 MOL      0.052014
     89 H37         4.3700    6.7850   -0.4720 hc        1 MOL      0.125631
     90 H38         3.8690    7.2250    1.1780 hc        1 MOL      0.125631
     91 H39         2.6420    7.1200   -2.2210 hn        1 MOL      0.372380
     92 H40         1.8770    8.6840   -2.1780 hn        1 MOL      0.372380
     93 N9          1.4360    3.6890    2.6100 n         1 MOL     -0.370426
     94 C30         0.3300    2.6960    2.9630 c3        1 MOL     -0.043773
     95 C31        -0.8410    3.1360    2.1250 c         1 MOL      0.613602
     96 O16        -1.0730    4.3370    2.0150 o         1 MOL     -0.608100
     97 C32        -0.0220    2.5760    4.4140 c3        1 MOL      0.282524
     98 C33        -0.9280    1.3550    4.6280 c3        1 MOL     -0.400863
     99 C34         1.2600    2.3170    5.2410 c3        1 MOL     -0.400863
    100 H41         1.4190    4.5370    3.1720 hn        1 MOL      0.273441
    101 H42         0.4750    1.7040    2.5390 h1        1 MOL      0.062367
    102 H43        -0.5510    3.4670    4.7410 hc        1 MOL     -0.005684
    103 H44        -0.4450    0.3790    4.5510 hc        1 MOL      0.093176
    104 H45        -1.2770    1.4150    5.6550 hc        1 MOL      0.093176
    105 H46        -1.7770    1.2620    3.9630 hc        1 MOL      0.093176
    106 H47         1.6340    3.3310    5.3670 hc        1 MOL      0.093176
    107 H48         1.0040    1.9830    6.2450 hc        1 MOL      0.093176
    108 H49         1.9820    1.6340    4.8050 hc        1 MOL      0.093176
    109 N10        -1.6410    2.2200    1.5520 n         1 MOL     -0.479481
    110 C35        -2.8290    2.6140    0.7280 c3        1 MOL      0.340633
    111 C36        -4.1300    1.9510    1.2570 c         1 MOL      0.071684
    112 O17        -4.0650    0.9350    1.9130 o         1 MOL     -0.261068
    113 C37        -2.5370    2.0980   -0.7130 c3        1 MOL     -0.217185
    114 C38        -3.8070    1.9080   -1.5760 c         1 MOL      0.595586
    115 N11        -4.5050    2.9190   -1.9240 n         1 MOL     -0.700006
    116 O18        -4.2440    0.7660   -1.7100 o         1 MOL     -0.497170
    117 H50        -1.4370    1.2610    1.7630 hn        1 MOL      0.244134
    118 H51        -2.9140    3.6940    0.6390 h1        1 MOL      0.021531
    119 H52        -2.0550    1.1190   -0.6300 hc        1 MOL      0.075115
    120 H53        -1.8530    2.7380   -1.2660 hc        1 MOL      0.075115
    121 H54        -4.2310    3.8760   -1.7630 hn        1 MOL      0.334234
    122 H55        -5.3120    2.7360   -2.5100 hn        1 MOL      0.334234
    123 N12        -5.3340    2.5640    0.9860 n         1 MOL     -0.212991
    124 C39        -6.5700    2.1440    1.6450 c3        1 MOL      0.183233
    125 C40        -6.8980    0.6290    1.4290 c         1 MOL      0.297358
    126 O19        -7.3800    0.0160    2.3650 o         1 MOL     -0.560870
    127 C41        -7.7320    3.0330    1.1130 c3        1 MOL     -0.359309
    128 C42        -8.2150    2.9190   -0.3630 ca        1 MOL      0.118336
    129 C43        -9.0580    1.9010   -0.7790 ca        1 MOL     -0.160664
    130 C44        -7.6810    3.8300   -1.2550 ca        1 MOL     -0.160664
    131 C45        -9.4060    1.9110   -2.1460 ca        1 MOL     -0.347495
    132 C46        -8.1180    3.8600   -2.6390 ca        1 MOL     -0.347495
    133 C47        -9.0200    2.9440   -3.0600 ca        1 MOL      0.484688
    134 O20        -9.5430    2.9740   -4.3150 oh        1 MOL     -0.586294
    135 H56        -5.3990    3.3870    0.3980 hn        1 MOL      0.154974
    136 H57        -6.4140    2.1450    2.7220 h1        1 MOL      0.040427
    137 H58        -7.4590    4.0670    1.3240 hc        1 MOL      0.095639
    138 H59        -8.6660    2.8500    1.6430 hc        1 MOL      0.095639
    139 H60        -9.4010    1.0630   -0.1850 ha        1 MOL      0.139221
    140 H61        -6.9190    4.5320   -0.9280 ha        1 MOL      0.139221
    141 H62        -9.9610    1.0940   -2.5810 ha        1 MOL      0.149942
    142 H63        -7.6120    4.4660   -3.3800 ha        1 MOL      0.149942
    143 H64       -10.1020    2.2120   -4.4970 ho        1 MOL      0.433402
    144 N13        -6.6770    0.0420    0.2220 n         1 MOL      0.318975
    145 C48        -7.0450   -1.2730   -0.0960 c3        1 MOL     -0.301163
    146 C49        -5.8960   -2.2920    0.0520 c         1 MOL      0.296357
    147 O21        -6.0340   -3.5130    0.2380 o         1 MOL     -0.473108
    148 C50        -7.5560   -1.2850   -1.5910 c3        1 MOL      0.460570
    149 C51        -8.6310   -2.3150   -1.7960 c3        1 MOL     -0.210346
    150 C52        -9.2600   -2.2350   -3.1730 c         1 MOL      0.659740
    151 O22        -9.8170   -3.2430   -3.6440 o         1 MOL     -0.723336
    152 O23        -9.1690   -1.1660   -3.8430 o         1 MOL     -0.723336
    153 H65        -6.2310    0.5690   -0.5080 hn        1 MOL      0.024906
    154 H66        -7.9400   -1.5000    0.4770 h1        1 MOL      0.089595
    155 H67        -6.7150   -1.1750   -2.2690 hc        1 MOL     -0.093699
    156 H68        -8.0710   -0.3290   -1.6710 hc        1 MOL     -0.093699
    157 H69        -9.4030   -2.2730   -1.0200 hc        1 MOL      0.017097
    158 H70        -8.1740   -3.2830   -1.6270 hc        1 MOL      0.017097
    159 N14        -4.6660   -1.7550    0.0790 n         1 MOL     -0.052914
    160 C53        -3.4930   -2.4420    0.6280 c3        1 MOL     -0.417243
    161 C54        -3.7000   -2.9900    2.0470 c         1 MOL      0.552095
    162 O24        -3.3970   -4.1030    2.3680 o         1 MOL     -0.521122
    163 C55        -2.3130   -1.4940    0.5880 c3        1 MOL      0.032903
    164 C56        -1.0660   -2.2030    0.7610 c3        1 MOL     -0.040877
    165 C57         0.1340   -1.4200    0.4110 c         1 MOL      0.701306
    166 O25         0.4570   -0.4320    1.1070 o         1 MOL     -0.724072
    167 O26         0.9140   -1.9000   -0.4290 o         1 MOL     -0.724072
    168 H71        -4.4950   -0.8670   -0.3740 hn        1 MOL      0.109694
    169 H72        -3.1950   -3.3210    0.0690 h1        1 MOL      0.188458
    170 H73        -2.4370   -0.6460    1.2570 hc        1 MOL      0.047178
    171 H74        -2.2880   -1.0440   -0.4080 hc        1 MOL      0.047178
    172 H75        -1.1010   -3.1750    0.2670 hc        1 MOL      0.018496
    173 H76        -1.0460   -2.4110    1.8310 hc        1 MOL      0.018496
    174 N15        -4.2430   -2.0630    2.8770 n         1 MOL     -0.103418
    175 C58        -4.5670   -2.3340    4.3030 c3        1 MOL     -0.215473
    176 H77        -3.6610   -2.6360    4.8300 h1        1 MOL      0.080720
    177 H78        -4.9700   -1.4320    4.7630 h1        1 MOL      0.080720
    178 H79        -5.3050   -3.1350    4.3630 h1        1 MOL      0.080720
    179 H80        -4.2290   -1.0840    2.5990 hn        1 MOL      0.107344
    180 Ca1         2.7740   -0.0340    0.0420 Ca        1 MOL      1.712568
    181 O27         2.6060   -0.0240    2.6840 oh        1 MOL     -0.876989
    182 H81         1.7590   -0.2030    3.0930 ho        1 MOL      0.423653
    183 H82         3.2350   -0.0430    3.3960 ho        1 MOL      0.423653
    184 O28         5.3150    0.4520    1.1130 oh        1 MOL     -0.876989
    185 H83         5.1550    0.3110    2.0450 ho        1 MOL      0.423653
    186 H84         6.1550    0.0240    0.9440 ho        1 MOL      0.423653
    187 O29         0.9340    1.3900   -1.5160 oh        1 MOL     -0.876989
    188 H85         0.4870    0.8610   -2.1760 ho        1 MOL      0.423653
    189 H86         1.5560    1.9260   -2.0000 ho        1 MOL      0.423653
@<TRIPOS>BOND
     1    1    2 1   
     2    1    4 1   
     3    1    5 1   
     4    1    6 1   
     5    2    3 2   
     6    2    7 1   
     7    7    8 1   
     8    7   15 1   
     9    8    9 1   
    10    8   11 1   
    11    8   16 1   
    12    9   10 2   
    13    9   19 1   
    14   11   12 1   
    15   11   17 1   
    16   11   18 1   
    17   12   13 1   
    18   12   14 1   
    19   19   20 1   
    20   19   27 1   
    21   20   21 1   
    22   20   23 1   
    23   20   28 1   
    24   21   22 2   
    25   21   38 1   
    26   23   24 1   
    27   23   25 1   
    28   23   29 1   
    29   24   26 1   
    30   24   30 1   
    31   24   31 1   
    32   25   32 1   
    33   25   33 1   
    34   25   34 1   
    35   26   35 1   
    36   26   36 1   
    37   26   37 1   
    38   38   39 1   
    39   38   46 1   
    40   39   40 1   
    41   39   42 1   
    42   39   47 1   
    43   40   41 2   
    44   40   50 1   
    45   42   43 1   
    46   42   48 1   
    47   42   49 1   
    48   43   44 1   
    49   43   45 1   
    50   50   51 1   
    51   50   54 1   
    52   51   52 1   
    53   51   55 1   
    54   51   56 1   
    55   52   53 2   
    56   52   57 1   
    57   57   58 1   
    58   57   65 1   
    59   58   59 1   
    60   58   61 1   
    61   58   66 1   
    62   59   60 2   
    63   59   69 1   
    64   61   62 1   
    65   61   67 1   
    66   61   68 1   
    67   62   63 1   
    68   62   64 1   
    69   69   70 1   
    70   69   73 1   
    71   70   71 1   
    72   70   74 1   
    73   70   75 1   
    74   71   72 2   
    75   71   76 1   
    76   76   77 1   
    77   76   85 1   
    78   77   78 1   
    79   77   80 1   
    80   77   86 1   
    81   78   79 2   
    82   78   93 1   
    83   80   81 1   
    84   80   87 1   
    85   80   88 1   
    86   81   82 1   
    87   81   89 1   
    88   81   90 1   
    89   82   83 1   
    90   82   84 2   
    91   83   91 1   
    92   83   92 1   
    93   93   94 1   
    94   93  100 1   
    95   94   95 1   
    96   94   97 1   
    97   94  101 1   
    98   95   96 2   
    99   95  109 1   
   100   97   98 1   
   101   97   99 1   
   102   97  102 1   
   103   98  103 1   
   104   98  104 1   
   105   98  105 1   
   106   99  106 1   
   107   99  107 1   
   108   99  108 1   
   109  109  110 1   
   110  109  117 1   
   111  110  111 1   
   112  110  113 1   
   113  110  118 1   
   114  111  112 2   
   115  111  123 1   
   116  113  114 1   
   117  113  119 1   
   118  113  120 1   
   119  114  115 1   
   120  114  116 2   
   121  115  121 1   
   122  115  122 1   
   123  123  124 1   
   124  123  135 1   
   125  124  125 1   
   126  124  127 1   
   127  124  136 1   
   128  125  126 2   
   129  125  144 1   
   130  127  128 1   
   131  127  137 1   
   132  127  138 1   
   133  128  129 ar  
   134  128  130 ar  
   135  129  131 ar  
   136  129  139 1   
   137  130  132 ar  
   138  130  140 1   
   139  131  133 ar  
   140  131  141 1   
   141  132  133 ar  
   142  132  142 1   
   143  133  134 1   
   144  134  143 1   
   145  144  145 1   
   146  144  153 1   
   147  145  146 1   
   148  145  148 1   
   149  145  154 1   
   150  146  147 2   
   151  146  159 1   
   152  148  149 1   
   153  148  155 1   
   154  148  156 1   
   155  149  150 1   
   156  149  157 1   
   157  149  158 1   
   158  150  151 1   
   159  150  152 1   
   160  159  160 1   
   161  159  168 1   
   162  160  161 1   
   163  160  163 1   
   164  160  169 1   
   165  161  162 2   
   166  161  174 1   
   167  163  164 1   
   168  163  170 1   
   169  163  171 1   
   170  164  165 1   
   171  164  172 1   
   172  164  173 1   
   173  165  166 1   
   174  165  167 1   
   175  174  175 1   
   176  174  179 1   
   177  175  176 1   
   178  175  177 1   
   179  175  178 1   
   180  181  182 1   
   181  181  183 1   
   182  184  185 1   
   183  184  186 1   
   184  187  188 1   
   185  187  189 1   
@<TRIPOS>SUBSTRUCTURE
     1 MOL         1 TEMP              0 ****  ****    0 ROOT
