@<TRIPOS>MOLECULE
MOL
  189   185     1     0     0
SMALL
resp


@<TRIPOS>ATOM
      1 C1         -0.2940   -3.7270    5.7170 c3        1 MOL     -0.394341
      2 C2          0.6870   -3.2940    4.5770 c         1 MOL      0.636147
      3 O1          0.7420   -2.0830    4.2530 o         1 MOL     -0.578560
      4 H1         -0.3030   -4.8150    5.7940 hc        1 MOL      0.106149
      5 H2          0.0360   -3.2990    6.6640 hc        1 MOL      0.106149
      6 H3         -1.2990   -3.3720    5.4880 hc        1 MOL      0.106149
      7 N1          1.3080   -4.2290    3.8340 n         1 MOL     -0.505353
      8 C3          2.1800   -3.9410    2.6860 c3        1 MOL      0.212724
      9 C4          2.1290   -5.1200    1.6830 c         1 MOL      0.437015
     10 O2          2.3760   -6.2670    2.0320 o         1 MOL     -0.561216
     11 C5          3.6200   -3.6480    3.1590 c3        1 MOL     -0.295835
     12 C6          4.4350   -2.8430    2.0990 c         1 MOL      0.818763
     13 O3          5.6190   -2.5400    2.3000 o         1 MOL     -0.721090
     14 O4          3.9580   -2.3740    1.0560 o         1 MOL     -0.721090
     15 H4          1.1950   -5.1890    4.1320 hn        1 MOL      0.287237
     16 H5          1.8030   -3.0730    2.1420 h1        1 MOL      0.054154
     17 H6          4.2260   -4.4810    3.5170 hc        1 MOL      0.066460
     18 H7          3.4480   -3.0540    4.0540 hc        1 MOL      0.066460
     19 N2          1.7470   -4.7420    0.4580 n         1 MOL     -0.144600
     20 C7          1.5530   -5.6800   -0.6990 c3        1 MOL     -0.059172
     21 C8          2.6580   -5.5420   -1.7740 c         1 MOL      0.565495
     22 O5          2.8050   -6.3190   -2.7700 o         1 MOL     -0.580322
     23 C9          0.1030   -5.4290   -1.1850 c3        1 MOL      0.132955
     24 C10        -0.9870   -5.5570   -0.0940 c3        1 MOL      0.078285
     25 C11        -0.2280   -6.1940   -2.4920 c3        1 MOL     -0.271328
     26 C12        -2.3020   -4.9950   -0.4480 c3        1 MOL     -0.081612
     27 H8          1.3080   -3.8350    0.3350 hn        1 MOL      0.091248
     28 H9          1.6160   -6.6710   -0.2390 h1        1 MOL      0.041883
     29 H10         0.1190   -4.3970   -1.5290 hc        1 MOL      0.064832
     30 H11        -0.6530   -5.1270    0.8540 hc        1 MOL     -0.034927
     31 H12        -1.1520   -6.5920    0.1770 hc        1 MOL     -0.034927
     32 H13        -0.1010   -7.2740   -2.4520 hc        1 MOL      0.059149
     33 H14        -1.2580   -5.9590   -2.7640 hc        1 MOL      0.059149
     34 H15         0.4690   -5.8510   -3.2540 hc        1 MOL      0.059149
     35 H16        -2.7530   -4.6980    0.4940 hc        1 MOL      0.021519
     36 H17        -2.2240   -4.0720   -1.0300 hc        1 MOL      0.021519
     37 H18        -2.9550   -5.7320   -0.9180 hc        1 MOL      0.021519
     38 N3          3.3890   -4.4370   -1.7090 n         1 MOL     -0.501960
     39 C13         4.1800   -3.8970   -2.8240 c3        1 MOL      0.068232
     40 C14         5.5360   -3.2440   -2.4220 c         1 MOL      0.392293
     41 O6          6.3530   -3.0800   -3.3130 o         1 MOL     -0.533012
     42 C15         3.3450   -2.9250   -3.7010 c3        1 MOL     -0.339942
     43 C16         2.6490   -1.8600   -2.8780 c         1 MOL      0.882645
     44 O7          3.0880   -1.5780   -1.7470 o         1 MOL     -0.739433
     45 O8          1.7390   -1.2570   -3.4450 o         1 MOL     -0.739433
     46 H19         3.0910   -3.7750   -1.0110 hn        1 MOL      0.278168
     47 H20         4.3480   -4.7300   -3.5060 h1        1 MOL      0.107245
     48 H21         2.5490   -3.5310   -4.1270 hc        1 MOL      0.097167
     49 H22         3.9010   -2.4100   -4.4760 hc        1 MOL      0.097167
     50 N4          5.7950   -2.8570   -1.1010 n         1 MOL     -0.172670
     51 C17         7.0770   -2.2540   -0.7010 c3        1 MOL     -0.282261
     52 C18         7.4280   -0.8870   -1.3580 c         1 MOL      0.504868
     53 O9          8.5810   -0.4650   -1.3170 o         1 MOL     -0.584770
     54 H23         5.0790   -2.8820   -0.3950 hn        1 MOL      0.125711
     55 H24         7.8470   -3.0180   -0.8240 h1        1 MOL      0.141825
     56 H25         6.9230   -2.2170    0.3690 h1        1 MOL      0.141825
     57 N5          6.4390   -0.1330   -1.9160 n         1 MOL     -0.202053
     58 C19         6.6990    1.1930   -2.4650 c3        1 MOL     -0.007541
     59 C20         7.0010    2.3000   -1.4130 c         1 MOL      0.431796
     60 O10         7.4130    3.4330   -1.6960 o         1 MOL     -0.580870
     61 C21         5.4980    1.7350   -3.2260 c3        1 MOL     -0.216741
     62 C22         4.1340    1.7520   -2.5220 c         1 MOL      0.776587
     63 O11         4.0150    1.4230   -1.2740 o         1 MOL     -0.705997
     64 O12         3.0880    2.1280   -3.0930 o         1 MOL     -0.705997
     65 H26         5.5710   -0.6190   -2.1070 hn        1 MOL      0.219413
     66 H27         7.5910    1.2300   -3.0900 h1        1 MOL      0.079901
     67 H28         5.3650    1.2170   -4.1780 hc        1 MOL      0.054095
     68 H29         5.6990    2.7660   -3.5410 hc        1 MOL      0.054095
     69 N6          6.7730    2.0310   -0.1250 n         1 MOL     -0.094659
     70 C23         7.0880    2.9060    1.0080 c3        1 MOL     -0.211196
     71 C24         5.8210    3.7480    1.4240 c         1 MOL      0.580043
     72 O13         6.0500    4.5410    2.3190 o         1 MOL     -0.603893
     73 H30         6.1910    1.2260    0.0460 hn        1 MOL      0.141579
     74 H31         7.9850    3.4890    0.7850 h1        1 MOL      0.099522
     75 H32         7.2640    2.2060    1.8270 h1        1 MOL      0.099522
     76 N7          4.7210    3.6920    0.6920 n         1 MOL     -0.253009
     77 C25         3.5040    4.4530    0.8200 c3        1 MOL      0.033925
     78 C26         2.3420    3.5780    1.2660 c         1 MOL      0.531003
     79 O14         2.4390    2.3470    1.2700 o         1 MOL     -0.573916
     80 C27         3.1600    5.1430   -0.5240 c3        1 MOL     -0.151681
     81 C28         4.0000    6.3960   -0.6900 c3        1 MOL     -0.106422
     82 C29         3.4930    7.2390   -1.8210 c         1 MOL      0.632246
     83 N8          3.4020    6.5680   -2.9630 n         1 MOL     -0.817407
     84 O15         3.2080    8.4310   -1.7010 o         1 MOL     -0.585148
     85 H33         4.7240    2.8770    0.0870 hn        1 MOL      0.164804
     86 H34         3.7030    5.2420    1.5400 h1        1 MOL      0.043995
     87 H35         2.1040    5.3870   -0.5580 hc        1 MOL      0.091881
     88 H36         3.5000    4.5270   -1.3530 hc        1 MOL      0.091881
     89 H37         5.0690    6.2110   -0.8110 hc        1 MOL      0.049566
     90 H38         3.8300    7.0580    0.1660 hc        1 MOL      0.049566
     91 H39         3.8230    5.6590   -3.0650 hn        1 MOL      0.371398
     92 H40         2.9840    7.0020   -3.7730 hn        1 MOL      0.371398
     93 N9          1.3380    4.1450    1.8070 n         1 MOL     -0.603205
     94 C30         0.0520    3.3970    2.0280 c3        1 MOL      0.187321
     95 C31        -0.9980    3.4270    0.8750 c         1 MOL      0.472263
     96 O16        -1.5930    4.5040    0.7110 o         1 MOL     -0.584671
     97 C32        -0.5410    3.8210    3.3730 c3        1 MOL      0.379404
     98 C33        -1.1980    5.1840    3.5930 c3        1 MOL     -0.334398
     99 C34        -1.4200    2.7630    4.0160 c3        1 MOL     -0.334398
    100 H41         1.2170    5.1510    1.7850 hn        1 MOL      0.325372
    101 H42         0.2830    2.3290    2.1300 h1        1 MOL      0.050448
    102 H43         0.3400    3.8170    4.0240 hc        1 MOL     -0.069189
    103 H44        -0.5450    5.9450    3.1520 hc        1 MOL      0.058136
    104 H45        -2.1610    5.2290    3.0880 hc        1 MOL      0.058136
    105 H46        -1.2510    5.2510    4.6780 hc        1 MOL      0.058136
    106 H47        -1.5500    2.9030    5.0890 hc        1 MOL      0.058136
    107 H48        -2.3840    2.9220    3.5380 hc        1 MOL      0.058136
    108 H49        -0.9160    1.8090    3.8330 hc        1 MOL      0.058136
    109 N10        -1.2120    2.3920    0.0970 n         1 MOL     -0.371072
    110 C35        -2.3980    2.2640   -0.7130 c3        1 MOL      0.209787
    111 C36        -3.7260    2.2550    0.1550 c         1 MOL      0.010628
    112 O17        -3.6540    1.8490    1.2760 o         1 MOL     -0.213473
    113 C37        -2.3300    1.0500   -1.6500 c3        1 MOL     -0.236608
    114 C38        -3.4260    0.9570   -2.6750 c         1 MOL      0.857435
    115 N11        -3.4800    1.9200   -3.5750 n         1 MOL     -0.911024
    116 O18        -4.2590    0.1080   -2.6340 o         1 MOL     -0.592176
    117 H50        -0.6200    1.6020    0.3040 hn        1 MOL      0.352230
    118 H51        -2.3320    3.1690   -1.3160 h1        1 MOL      0.013256
    119 H52        -2.3530    0.1000   -1.1210 hc        1 MOL      0.074130
    120 H53        -1.3880    1.0570   -2.1920 hc        1 MOL      0.074130
    121 H54        -2.7650    2.6170   -3.6980 hn        1 MOL      0.381583
    122 H55        -4.2930    1.9450   -4.1850 hn        1 MOL      0.381583
    123 N12        -4.8080    2.6420   -0.3830 n         1 MOL     -0.022376
    124 C39        -6.0920    2.7840    0.2960 c3        1 MOL      0.004938
    125 C40        -6.5820    1.4090    0.8160 c         1 MOL      0.591209
    126 O19        -7.1480    1.3750    1.8450 o         1 MOL     -0.561351
    127 C41        -7.0780    3.4670   -0.6800 c3        1 MOL     -0.172401
    128 C42        -7.8170    2.5620   -1.6890 ca        1 MOL      0.101991
    129 C43        -8.9950    1.9460   -1.2880 ca        1 MOL     -0.235109
    130 C44        -7.3000    2.2790   -2.9890 ca        1 MOL     -0.235109
    131 C45        -9.6610    1.0390   -2.1600 ca        1 MOL     -0.208586
    132 C46        -7.9360    1.3810   -3.8710 ca        1 MOL     -0.208586
    133 C47        -9.1490    0.7450   -3.4850 ca        1 MOL      0.214517
    134 O20        -9.7270   -0.0590   -4.4210 oh        1 MOL     -0.411397
    135 H56        -4.8150    3.0300   -1.3100 hn        1 MOL      0.136019
    136 H57        -5.8390    3.4010    1.1570 h1        1 MOL      0.065287
    137 H58        -6.5450    4.2830   -1.1800 hc        1 MOL      0.052574
    138 H59        -7.9180    3.8710   -0.1020 hc        1 MOL      0.052574
    139 H60        -9.4950    2.1740   -0.3610 ha        1 MOL      0.146124
    140 H61        -6.3650    2.7430   -3.2590 ha        1 MOL      0.146124
    141 H62       -10.5930    0.5920   -1.8350 ha        1 MOL      0.149111
    142 H63        -7.5770    1.2650   -4.8790 ha        1 MOL      0.149111
    143 H64       -10.5700   -0.3920   -4.1190 ho        1 MOL      0.361880
    144 N13        -6.2850    0.2750    0.0750 n         1 MOL     -0.198255
    145 C48        -6.5920   -1.0650    0.6480 c3        1 MOL     -0.042565
    146 C49        -5.5820   -1.4630    1.7090 c         1 MOL      0.381026
    147 O21        -5.8030   -2.3720    2.4690 o         1 MOL     -0.551468
    148 C50        -6.5950   -2.0910   -0.5060 c3        1 MOL     -0.165283
    149 C51        -7.5730   -1.7450   -1.6200 c3        1 MOL     -0.222672
    150 C52        -7.7570   -2.8250   -2.6600 c         1 MOL      0.793541
    151 O22        -8.8100   -3.3960   -2.8870 o         1 MOL     -0.757087
    152 O23        -6.7650   -3.1560   -3.4420 o         1 MOL     -0.757087
    153 H65        -6.0840    0.2890   -0.9160 hn        1 MOL      0.188110
    154 H66        -7.5430   -1.0840    1.1810 h1        1 MOL      0.082252
    155 H67        -6.7690   -3.0710   -0.0690 hc        1 MOL      0.077041
    156 H68        -5.5980   -2.2850   -0.9020 hc        1 MOL      0.077041
    157 H69        -7.1740   -0.8420   -2.0790 hc        1 MOL      0.049088
    158 H70        -8.5760   -1.4440   -1.2880 hc        1 MOL      0.049088
    159 N14        -4.4070   -0.8790    1.8370 n         1 MOL     -0.094483
    160 C53        -3.5160   -1.0930    2.9620 c3        1 MOL     -0.000151
    161 C54        -3.9810   -0.2720    4.1710 c         1 MOL      0.360006
    162 O24        -3.8260   -0.7340    5.3420 o         1 MOL     -0.568164
    163 C55        -2.0840   -0.6560    2.4780 c3        1 MOL      0.200253
    164 C56        -1.5180   -1.5700    1.3890 c3        1 MOL     -0.222690
    165 C57        -0.1800   -1.0270    0.8890 c         1 MOL      0.842449
    166 O25         0.5490   -1.8120    0.1840 o         1 MOL     -0.761816
    167 O26         0.1810    0.1710    1.0360 o         1 MOL     -0.761816
    168 H71        -4.1760   -0.1380    1.1760 hn        1 MOL      0.060575
    169 H72        -3.4640   -2.1410    3.2460 h1        1 MOL      0.084004
    170 H73        -1.4170   -0.7800    3.3350 hc        1 MOL     -0.040965
    171 H74        -2.0570    0.3970    2.2090 hc        1 MOL     -0.040965
    172 H75        -2.2990   -1.4830    0.6330 hc        1 MOL      0.040896
    173 H76        -1.3960   -2.5910    1.7260 hc        1 MOL      0.040896
    174 N15        -4.5860    0.8880    3.8750 n         1 MOL      0.006939
    175 C58        -5.2980    1.7390    4.8070 c3        1 MOL     -0.160882
    176 H77        -5.6260    1.1470    5.6610 h1        1 MOL      0.060256
    177 H78        -4.6360    2.5350    5.1500 h1        1 MOL      0.060256
    178 H79        -6.1660    2.1750    4.3120 h1        1 MOL      0.060256
    179 H80        -4.5580    1.1420    2.9000 hn        1 MOL      0.039868
    180 Ca1         2.8380   -0.1390    0.4070 Ca        1 MOL      1.755197
    181 O27         2.4700   -0.2170    3.0940 oh        1 MOL     -0.921015
    182 H81         1.7400   -0.6730    3.5110 ho        1 MOL      0.431758
    183 H82         2.7000    0.4820    3.7010 ho        1 MOL      0.431758
    184 O28         1.1820    0.7580   -1.5610 oh        1 MOL     -0.921015
    185 H83         1.6440    1.2070   -2.2730 ho        1 MOL      0.431758
    186 H84         1.0630   -0.1410   -1.8830 ho        1 MOL      0.431758
    187 O29         5.2710    0.0170    1.4860 oh        1 MOL     -0.921015
    188 H85         5.2980    0.4250    2.3430 ho        1 MOL      0.431758
    189 H86         5.3910   -0.9200    1.6590 ho        1 MOL      0.431758
@<TRIPOS>BOND
     1    1    2 1   
     2    1    4 1   
     3    1    5 1   
     4    1    6 1   
     5    2    3 2   
     6    2    7 1   
     7    7    8 1   
     8    7   15 1   
     9    8    9 1   
    10    8   11 1   
    11    8   16 1   
    12    9   10 2   
    13    9   19 1   
    14   11   12 1   
    15   11   17 1   
    16   11   18 1   
    17   12   13 1   
    18   12   14 1   
    19   19   20 1   
    20   19   27 1   
    21   20   21 1   
    22   20   23 1   
    23   20   28 1   
    24   21   22 2   
    25   21   38 1   
    26   23   24 1   
    27   23   25 1   
    28   23   29 1   
    29   24   26 1   
    30   24   30 1   
    31   24   31 1   
    32   25   32 1   
    33   25   33 1   
    34   25   34 1   
    35   26   35 1   
    36   26   36 1   
    37   26   37 1   
    38   38   39 1   
    39   38   46 1   
    40   39   40 1   
    41   39   42 1   
    42   39   47 1   
    43   40   41 2   
    44   40   50 1   
    45   42   43 1   
    46   42   48 1   
    47   42   49 1   
    48   43   44 1   
    49   43   45 1   
    50   50   51 1   
    51   50   54 1   
    52   51   52 1   
    53   51   55 1   
    54   51   56 1   
    55   52   53 2   
    56   52   57 1   
    57   57   58 1   
    58   57   65 1   
    59   58   59 1   
    60   58   61 1   
    61   58   66 1   
    62   59   60 2   
    63   59   69 1   
    64   61   62 1   
    65   61   67 1   
    66   61   68 1   
    67   62   63 1   
    68   62   64 1   
    69   69   70 1   
    70   69   73 1   
    71   70   71 1   
    72   70   74 1   
    73   70   75 1   
    74   71   72 2   
    75   71   76 1   
    76   76   77 1   
    77   76   85 1   
    78   77   78 1   
    79   77   80 1   
    80   77   86 1   
    81   78   79 2   
    82   78   93 1   
    83   80   81 1   
    84   80   87 1   
    85   80   88 1   
    86   81   82 1   
    87   81   89 1   
    88   81   90 1   
    89   82   83 1   
    90   82   84 2   
    91   83   91 1   
    92   83   92 1   
    93   93   94 1   
    94   93  100 1   
    95   94   95 1   
    96   94   97 1   
    97   94  101 1   
    98   95   96 2   
    99   95  109 1   
   100   97   98 1   
   101   97   99 1   
   102   97  102 1   
   103   98  103 1   
   104   98  104 1   
   105   98  105 1   
   106   99  106 1   
   107   99  107 1   
   108   99  108 1   
   109  109  110 1   
   110  109  117 1   
   111  110  111 1   
   112  110  113 1   
   113  110  118 1   
   114  111  112 2   
   115  111  123 1   
   116  113  114 1   
   117  113  119 1   
   118  113  120 1   
   119  114  115 1   
   120  114  116 2   
   121  115  121 1   
   122  115  122 1   
   123  123  124 1   
   124  123  135 1   
   125  124  125 1   
   126  124  127 1   
   127  124  136 1   
   128  125  126 2   
   129  125  144 1   
   130  127  128 1   
   131  127  137 1   
   132  127  138 1   
   133  128  129 ar  
   134  128  130 ar  
   135  129  131 ar  
   136  129  139 1   
   137  130  132 ar  
   138  130  140 1   
   139  131  133 ar  
   140  131  141 1   
   141  132  133 ar  
   142  132  142 1   
   143  133  134 1   
   144  134  143 1   
   145  144  145 1   
   146  144  153 1   
   147  145  146 1   
   148  145  148 1   
   149  145  154 1   
   150  146  147 2   
   151  146  159 1   
   152  148  149 1   
   153  148  155 1   
   154  148  156 1   
   155  149  150 1   
   156  149  157 1   
   157  149  158 1   
   158  150  151 1   
   159  150  152 1   
   160  159  160 1   
   161  159  168 1   
   162  160  161 1   
   163  160  163 1   
   164  160  169 1   
   165  161  162 2   
   166  161  174 1   
   167  163  164 1   
   168  163  170 1   
   169  163  171 1   
   170  164  165 1   
   171  164  172 1   
   172  164  173 1   
   173  165  166 1   
   174  165  167 1   
   175  174  175 1   
   176  174  179 1   
   177  175  176 1   
   178  175  177 1   
   179  175  178 1   
   180  181  182 1   
   181  181  183 1   
   182  184  185 1   
   183  184  186 1   
   184  187  188 1   
   185  187  189 1   
@<TRIPOS>SUBSTRUCTURE
     1 MOL         1 TEMP              0 ****  ****    0 ROOT
