@<TRIPOS>MOLECULE
MOL
  186   183     1     0     0
SMALL
resp


@<TRIPOS>ATOM
      1 C1          0.8020   -2.7630    6.1080 c3        1 MOL     -0.232308
      2 C2          1.2140   -2.5940    4.6060 c         1 MOL      0.763439
      3 O1          0.3790   -2.9170    3.7760 o         1 MOL     -0.591427
      4 H1         -0.2810   -2.8660    6.1780 hc        1 MOL      0.045320
      5 H2          1.2780   -3.6530    6.5180 hc        1 MOL      0.045320
      6 H3          1.1200   -1.8870    6.6740 hc        1 MOL      0.045320
      7 N1          2.4770   -2.1700    4.3490 n         1 MOL     -0.749087
      8 C3          2.9980   -2.0400    3.0060 c3        1 MOL      0.471453
      9 C4          3.3190   -3.4090    2.3560 c         1 MOL      0.418693
     10 O2          4.2080   -4.0680    2.7650 o         1 MOL     -0.552318
     11 C5          4.2330   -1.1360    3.0210 c3        1 MOL     -0.368479
     12 C6          4.8250   -0.7740    1.6300 c         1 MOL      0.896363
     13 O3          5.8200   -0.0560    1.6420 o         1 MOL     -0.669362
     14 O4          4.2490   -1.1820    0.5880 o         1 MOL     -0.669362
     15 H4          2.9600   -1.7960    5.1540 hn        1 MOL      0.340421
     16 H5          2.2820   -1.5240    2.3690 h1        1 MOL     -0.056811
     17 H6          5.0270   -1.6640    3.5470 hc        1 MOL      0.055981
     18 H7          3.9950   -0.2220    3.5750 hc        1 MOL      0.055981
     19 N2          2.6720   -3.7640    1.2050 n         1 MOL     -0.165865
     20 C7          2.7980   -5.0520    0.5200 c3        1 MOL     -0.031678
     21 C8          3.9060   -5.0430   -0.6020 c         1 MOL      0.409068
     22 O5          4.3980   -6.0860   -0.9320 o         1 MOL     -0.542400
     23 C9          1.3780   -5.5650    0.1770 c3        1 MOL      0.213519
     24 C10         0.4370   -5.5250    1.3590 c3        1 MOL      0.076993
     25 C11         1.4180   -6.9240   -0.5060 c3        1 MOL     -0.149226
     26 C12        -1.0010   -6.1520    1.1460 c3        1 MOL     -0.141804
     27 H8          2.0280   -3.1030    0.7900 hn        1 MOL      0.030959
     28 H9          3.2000   -5.7480    1.2560 h1        1 MOL      0.054578
     29 H10         0.9490   -4.8650   -0.5390 hc        1 MOL     -0.001850
     30 H11         0.2850   -4.4740    1.5700 hc        1 MOL     -0.021349
     31 H12         0.8960   -5.9660    2.2340 hc        1 MOL     -0.021349
     32 H13         0.4310   -7.3340   -0.6750 hc        1 MOL      0.010890
     33 H14         1.9590   -6.8350   -1.4460 hc        1 MOL      0.010890
     34 H15         1.9500   -7.6220    0.1410 hc        1 MOL      0.010890
     35 H16        -1.3130   -6.1230    0.1020 hc        1 MOL      0.029872
     36 H17        -1.0530   -7.1960    1.4620 hc        1 MOL      0.029872
     37 H18        -1.7210   -5.5790    1.7390 hc        1 MOL      0.029872
     38 N3          4.0990   -3.9160   -1.3260 n         1 MOL     -0.164311
     39 C13         5.1200   -3.8290   -2.4150 c3        1 MOL      0.065509
     40 C14         6.3490   -2.9580   -2.1370 c         1 MOL      0.457340
     41 O6          7.2460   -2.8210   -2.9340 o         1 MOL     -0.517418
     42 C15         4.4060   -3.4590   -3.7280 c3        1 MOL     -0.215620
     43 C16         3.3120   -2.4960   -3.6470 c         1 MOL      0.824371
     44 O7          2.3730   -2.5420   -4.4610 o         1 MOL     -0.718106
     45 O8          3.3170   -1.6410   -2.7240 o         1 MOL     -0.718106
     46 H19         3.5690   -3.0730   -1.1290 hn        1 MOL      0.114956
     47 H20         5.6380   -4.7800   -2.4630 h1        1 MOL      0.052542
     48 H21         3.9910   -4.3870   -4.1230 hc        1 MOL      0.039170
     49 H22         5.1730   -3.0960   -4.4120 hc        1 MOL      0.039170
     50 N4          6.3920   -2.3290   -0.9580 n         1 MOL     -0.151814
     51 C17         7.6910   -1.8930   -0.3750 c3        1 MOL     -0.192485
     52 C18         8.1410   -0.4710   -0.9290 c         1 MOL      0.444377
     53 O9          9.1410   -0.2700   -1.6850 o         1 MOL     -0.559700
     54 H23         5.5050   -2.2060   -0.4920 hn        1 MOL      0.087925
     55 H24         8.5080   -2.5970   -0.5310 h1        1 MOL      0.094953
     56 H25         7.6290   -1.7380    0.7010 h1        1 MOL      0.094953
     57 N5          7.2870    0.5520   -0.6610 n         1 MOL     -0.169873
     58 C19         7.4080    2.0400   -1.0510 c3        1 MOL      0.006401
     59 C20         7.3320    3.0220    0.1080 c         1 MOL      0.441059
     60 O10         7.6930    4.2080   -0.0760 o         1 MOL     -0.543513
     61 C21         6.3920    2.4390   -2.1720 c3        1 MOL     -0.077183
     62 C22         5.0640    1.7910   -1.8960 c         1 MOL      0.833389
     63 O11         4.4000    1.1950   -2.7770 o         1 MOL     -0.790234
     64 O12         4.4530    1.8140   -0.7960 o         1 MOL     -0.790234
     65 H26         6.4830    0.2470   -0.1330 hn        1 MOL      0.063676
     66 H27         8.4050    2.0840   -1.4960 h1        1 MOL      0.077876
     67 H28         6.7730    2.1480   -3.1560 hc        1 MOL      0.029757
     68 H29         6.1530    3.5050   -2.1850 hc        1 MOL      0.029757
     69 N6          7.0100    2.4720    1.2900 n         1 MOL     -0.421220
     70 C23         6.6620    3.4400    2.3450 c3        1 MOL      0.134354
     71 C24         5.2840    4.1120    2.1290 c         1 MOL      0.400571
     72 O13         5.0210    5.1400    2.7480 o         1 MOL     -0.589043
     73 H30         6.6820    1.5260    1.4250 hn        1 MOL      0.269202
     74 H31         7.4040    4.1820    2.6350 h1        1 MOL      0.031587
     75 H32         6.5240    2.8540    3.2430 h1        1 MOL      0.031587
     76 N7          4.3990    3.6290    1.1990 n         1 MOL     -0.181772
     77 C25         3.0360    4.1070    1.0320 c3        1 MOL     -0.079220
     78 C26         1.9910    3.0480    1.2290 c         1 MOL      0.601690
     79 O14         2.1040    1.8690    0.8210 o         1 MOL     -0.686068
     80 C27         2.8610    4.7120   -0.3530 c3        1 MOL      0.164687
     81 C28         3.6800    5.9940   -0.5830 c3        1 MOL     -0.243335
     82 C29         3.6330    6.4050   -2.0360 c         1 MOL      0.747169
     83 N8          4.1630    7.6350   -2.3400 n         1 MOL     -0.896432
     84 O15         3.0250    5.8330   -2.8900 o         1 MOL     -0.555364
     85 H33         4.6730    2.7960    0.6910 hn        1 MOL      0.184611
     86 H34         2.7920    4.9070    1.7240 h1        1 MOL      0.057073
     87 H35         1.8220    5.0110   -0.4460 hc        1 MOL     -0.010372
     88 H36         3.1180    3.9610   -1.1020 hc        1 MOL     -0.010372
     89 H37         4.6950    5.8740   -0.2140 hc        1 MOL      0.067839
     90 H38         3.2830    6.8350   -0.0140 hc        1 MOL      0.067839
     91 H39         4.8210    8.0800   -1.7120 hn        1 MOL      0.367636
     92 H40         3.9860    8.0110   -3.2510 hn        1 MOL      0.367636
     93 N9          0.9320    3.4980    1.8150 n         1 MOL     -0.379397
     94 C30        -0.2550    2.6520    2.0430 c3        1 MOL      0.027038
     95 C31        -1.4340    3.1730    1.2790 c         1 MOL      0.379999
     96 O16        -1.9830    4.2530    1.5910 o         1 MOL     -0.574033
     97 C32        -0.6610    2.5660    3.5550 c3        1 MOL      0.380146
     98 C33        -1.8670    1.7030    3.7630 c3        1 MOL     -0.376826
     99 C34         0.4380    1.9270    4.4160 c3        1 MOL     -0.376826
    100 H41         0.9290    4.3960    2.2960 hn        1 MOL      0.252292
    101 H42        -0.0460    1.6990    1.5590 h1        1 MOL      0.146168
    102 H43        -0.8320    3.5610    3.9530 hc        1 MOL     -0.039497
    103 H44        -2.0960    1.5770    4.8140 hc        1 MOL      0.076121
    104 H45        -2.7670    2.0760    3.2660 hc        1 MOL      0.076121
    105 H46        -1.6220    0.7370    3.3170 hc        1 MOL      0.076121
    106 H47         1.4170    2.2690    4.0970 hc        1 MOL      0.076121
    107 H48         0.1320    2.2020    5.4250 hc        1 MOL      0.076121
    108 H49         0.4570    0.8330    4.3900 hc        1 MOL      0.076121
    109 N10        -1.8770    2.4070    0.2770 n         1 MOL     -0.261373
    110 C35        -3.0370    2.8350   -0.5590 c3        1 MOL      0.262143
    111 C36        -4.3580    2.1760   -0.1340 c         1 MOL      0.135804
    112 O17        -4.2890    1.2610    0.7560 o         1 MOL     -0.149102
    113 C37        -2.6610    2.5350   -1.9990 c3        1 MOL     -0.401442
    114 C38        -2.9230    1.0820   -2.4640 c         1 MOL      0.666663
    115 N11        -1.9550    0.1780   -2.5710 n         1 MOL     -0.789313
    116 O18        -4.0240    0.7180   -2.8270 o         1 MOL     -0.554006
    117 H50        -1.4320    1.5090    0.1650 hn        1 MOL      0.118684
    118 H51        -3.0420    3.9230   -0.5130 h1        1 MOL      0.061164
    119 H52        -1.6480    2.8900   -2.1770 hc        1 MOL      0.118527
    120 H53        -3.3840    3.1170   -2.5700 hc        1 MOL      0.118527
    121 H54        -1.0880    0.3450   -2.0620 hn        1 MOL      0.400248
    122 H55        -2.2260   -0.7790   -2.6990 hn        1 MOL      0.400248
    123 N12        -5.5990    2.4860   -0.5350 n         1 MOL     -0.487410
    124 C39        -6.8690    2.0070   -0.0850 c3        1 MOL      0.404054
    125 C40        -7.0220    0.5200   -0.2370 c         1 MOL      0.563679
    126 O19        -7.7290   -0.1000    0.5970 o         1 MOL     -0.532321
    127 C41        -7.9830    2.7250   -0.9270 c3        1 MOL     -0.489519
    128 C42        -9.3680    2.2860   -0.4210 ca        1 MOL      0.548619
    129 C43        -9.7250    2.6200    0.9090 ca        1 MOL     -0.490544
    130 C44       -10.3720    1.8300   -1.2990 ca        1 MOL     -0.490544
    131 C45       -10.9700    2.2670    1.4470 ca        1 MOL     -0.054077
    132 C46       -11.6730    1.5010   -0.8080 ca        1 MOL     -0.054077
    133 C47       -11.9390    1.7290    0.6010 ca        1 MOL      0.139376
    134 O20       -13.0450    1.2020    1.0930 oh        1 MOL     -0.523292
    135 H56        -5.6660    3.0830   -1.3560 hn        1 MOL      0.295898
    136 H57        -7.0820    2.1720    0.9700 h1        1 MOL     -0.040301
    137 H58        -7.8510    2.4680   -1.9750 hc        1 MOL      0.109701
    138 H59        -8.0080    3.8040   -0.8140 hc        1 MOL      0.109701
    139 H60        -8.9600    3.0180    1.5530 ha        1 MOL      0.204837
    140 H61       -10.1930    1.5390   -2.3260 ha        1 MOL      0.204837
    141 H62       -11.1500    2.2860    2.5150 ha        1 MOL      0.110679
    142 H63       -12.4590    1.0190   -1.3770 ha        1 MOL      0.110679
    143 H64       -13.5680    0.6330    0.5250 ho        1 MOL      0.409753
    144 N13        -6.3660   -0.1910   -1.1810 n         1 MOL     -0.505935
    145 C48        -6.4430   -1.6860   -1.2190 c3        1 MOL     -0.017738
    146 C49        -5.5460   -2.3030   -0.0400 c         1 MOL      0.282232
    147 O21        -5.8690   -3.4030    0.3450 o         1 MOL     -0.475302
    148 C50        -6.0290   -2.0850   -2.5880 c3        1 MOL      0.207038
    149 C51        -6.8870   -1.6210   -3.7650 c3        1 MOL     -0.213419
    150 C52        -8.2900   -2.1590   -3.7440 c         1 MOL      0.677975
    151 O22        -9.1400   -1.4830   -3.1590 o         1 MOL     -0.721516
    152 O23        -8.5850   -3.2480   -4.2400 o         1 MOL     -0.721516
    153 H65        -5.8880    0.3110   -1.9120 hn        1 MOL      0.250130
    154 H66        -7.4650   -1.9700   -0.9870 h1        1 MOL      0.153045
    155 H67        -5.9060   -3.1680   -2.6420 hc        1 MOL     -0.044195
    156 H68        -4.9900   -1.7740   -2.6340 hc        1 MOL     -0.044195
    157 H69        -6.3940   -1.8920   -4.7040 hc        1 MOL      0.008447
    158 H70        -6.9130   -0.5350   -3.7110 hc        1 MOL      0.008447
    159 N14        -4.4470   -1.6000    0.3260 n         1 MOL     -0.109819
    160 C53        -3.4540   -2.2780    1.2480 c3        1 MOL     -0.023737
    161 C54        -4.0050   -2.0010    2.6560 c         1 MOL      0.333091
    162 O24        -3.9880   -2.8520    3.5600 o         1 MOL     -0.546193
    163 C55        -2.0390   -1.6380    1.1370 c3        1 MOL      0.077375
    164 C56        -1.3160   -2.0840   -0.1710 c3        1 MOL      0.106837
    165 C57        -0.0380   -1.2410   -0.3160 c         1 MOL      0.534328
    166 O25         1.0870   -1.8240   -0.4100 o         1 MOL     -0.607947
    167 O26        -0.1030   -0.0470   -0.5050 o         1 MOL     -0.607947
    168 H71        -4.1630   -0.7750   -0.1860 hn        1 MOL      0.223632
    169 H72        -3.3180   -3.3270    1.0080 h1        1 MOL      0.084158
    170 H73        -1.5630   -2.0390    2.0360 hc        1 MOL      0.008521
    171 H74        -2.0510   -0.5510    1.1520 hc        1 MOL      0.008521
    172 H75        -2.0270   -1.8230   -0.9680 hc        1 MOL     -0.053756
    173 H76        -1.1000   -3.1500   -0.2630 hc        1 MOL     -0.053756
    174 N15        -4.7400   -0.8990    2.7630 n         1 MOL      0.176764
    175 C58        -5.4930   -0.5140    3.9250 c3        1 MOL     -0.224150
    176 H77        -6.5450   -0.7540    3.7710 h1        1 MOL      0.072414
    177 H78        -5.1200   -1.0550    4.7950 h1        1 MOL      0.072414
    178 H79        -5.3850    0.5580    4.0890 h1        1 MOL      0.072414
    179 H80        -4.6730   -0.2280    2.0140 hn        1 MOL     -0.171908
    180 Ca1         2.6240    0.1360   -1.0940 Ca        1 MOL      1.727551
    181 O27         1.4470    2.5260   -2.1110 oh        1 MOL     -0.802598
    182 H81         1.7230    3.4470   -2.1060 ho        1 MOL      0.375178
    183 H82         0.9710    2.4310   -2.9390 ho        1 MOL      0.375178
    184 O28         0.9760   -0.3380   -3.2910 oh        1 MOL     -0.802598
    185 H83         1.5730   -0.9960   -3.6390 ho        1 MOL      0.375178
    186 H84         0.7380    0.1850   -4.0590 ho        1 MOL      0.375178
@<TRIPOS>BOND
     1    1    2 1   
     2    1    4 1   
     3    1    5 1   
     4    1    6 1   
     5    2    3 2   
     6    2    7 1   
     7    7    8 1   
     8    7   15 1   
     9    8    9 1   
    10    8   11 1   
    11    8   16 1   
    12    9   10 2   
    13    9   19 1   
    14   11   12 1   
    15   11   17 1   
    16   11   18 1   
    17   12   13 1   
    18   12   14 1   
    19   19   20 1   
    20   19   27 1   
    21   20   21 1   
    22   20   23 1   
    23   20   28 1   
    24   21   22 2   
    25   21   38 1   
    26   23   24 1   
    27   23   25 1   
    28   23   29 1   
    29   24   26 1   
    30   24   30 1   
    31   24   31 1   
    32   25   32 1   
    33   25   33 1   
    34   25   34 1   
    35   26   35 1   
    36   26   36 1   
    37   26   37 1   
    38   38   39 1   
    39   38   46 1   
    40   39   40 1   
    41   39   42 1   
    42   39   47 1   
    43   40   41 2   
    44   40   50 1   
    45   42   43 1   
    46   42   48 1   
    47   42   49 1   
    48   43   44 1   
    49   43   45 1   
    50   50   51 1   
    51   50   54 1   
    52   51   52 1   
    53   51   55 1   
    54   51   56 1   
    55   52   53 2   
    56   52   57 1   
    57   57   58 1   
    58   57   65 1   
    59   58   59 1   
    60   58   61 1   
    61   58   66 1   
    62   59   60 2   
    63   59   69 1   
    64   61   62 1   
    65   61   67 1   
    66   61   68 1   
    67   62   63 1   
    68   62   64 1   
    69   69   70 1   
    70   69   73 1   
    71   70   71 1   
    72   70   74 1   
    73   70   75 1   
    74   71   72 2   
    75   71   76 1   
    76   76   77 1   
    77   76   85 1   
    78   77   78 1   
    79   77   80 1   
    80   77   86 1   
    81   78   79 2   
    82   78   93 1   
    83   80   81 1   
    84   80   87 1   
    85   80   88 1   
    86   81   82 1   
    87   81   89 1   
    88   81   90 1   
    89   82   83 1   
    90   82   84 2   
    91   83   91 1   
    92   83   92 1   
    93   93   94 1   
    94   93  100 1   
    95   94   95 1   
    96   94   97 1   
    97   94  101 1   
    98   95   96 2   
    99   95  109 1   
   100   97   98 1   
   101   97   99 1   
   102   97  102 1   
   103   98  103 1   
   104   98  104 1   
   105   98  105 1   
   106   99  106 1   
   107   99  107 1   
   108   99  108 1   
   109  109  110 1   
   110  109  117 1   
   111  110  111 1   
   112  110  113 1   
   113  110  118 1   
   114  111  112 2   
   115  111  123 1   
   116  113  114 1   
   117  113  119 1   
   118  113  120 1   
   119  114  115 1   
   120  114  116 2   
   121  115  121 1   
   122  115  122 1   
   123  123  124 1   
   124  123  135 1   
   125  124  125 1   
   126  124  127 1   
   127  124  136 1   
   128  125  126 2   
   129  125  144 1   
   130  127  128 1   
   131  127  137 1   
   132  127  138 1   
   133  128  129 ar  
   134  128  130 ar  
   135  129  131 ar  
   136  129  139 1   
   137  130  132 ar  
   138  130  140 1   
   139  131  133 ar  
   140  131  141 1   
   141  132  133 ar  
   142  132  142 1   
   143  133  134 1   
   144  134  143 1   
   145  144  145 1   
   146  144  153 1   
   147  145  146 1   
   148  145  148 1   
   149  145  154 1   
   150  146  147 2   
   151  146  159 1   
   152  148  149 1   
   153  148  155 1   
   154  148  156 1   
   155  149  150 1   
   156  149  157 1   
   157  149  158 1   
   158  150  151 1   
   159  150  152 1   
   160  159  160 1   
   161  159  168 1   
   162  160  161 1   
   163  160  163 1   
   164  160  169 1   
   165  161  162 2   
   166  161  174 1   
   167  163  164 1   
   168  163  170 1   
   169  163  171 1   
   170  164  165 1   
   171  164  172 1   
   172  164  173 1   
   173  165  166 1   
   174  165  167 1   
   175  174  175 1   
   176  174  179 1   
   177  175  176 1   
   178  175  177 1   
   179  175  178 1   
   180  181  182 1   
   181  181  183 1   
   182  184  185 1   
   183  184  186 1   
@<TRIPOS>SUBSTRUCTURE
     1 MOL         1 TEMP              0 ****  ****    0 ROOT
