@<TRIPOS>MOLECULE
MOL
  175   173     1     0     0
SMALL
resp


@<TRIPOS>ATOM
      1 C1          0.5150    4.1150    5.1420 c3        1 MOL     -0.405786
      2 C2         -0.1460    4.1220    3.7310 c         1 MOL      0.729121
      3 O1          0.4620    4.3830    2.7410 o         1 MOL     -0.492078
      4 H1          1.5440    3.7640    5.0590 hc        1 MOL      0.094711
      5 H2          0.5090    5.1250    5.5520 hc        1 MOL      0.094711
      6 H3         -0.0430    3.4500    5.8020 hc        1 MOL      0.094711
      7 N1         -1.5110    4.0370    3.7580 n         1 MOL     -0.723295
      8 C3         -2.3510    3.8340    2.5920 c3        1 MOL      0.260144
      9 C4         -2.5790    5.0620    1.6610 c         1 MOL      0.571570
     10 O2         -2.4600    6.2220    2.1060 o         1 MOL     -0.551588
     11 C5         -3.6290    2.9860    2.9920 c3        1 MOL     -0.464016
     12 C6         -4.0690    2.1590    1.7810 c         1 MOL      0.793248
     13 O3         -5.1730    1.5370    1.8780 o         1 MOL     -0.687749
     14 O4         -3.3990    2.0190    0.7260 o         1 MOL     -0.687749
     15 H4         -2.0030    4.2020    4.6170 hn        1 MOL      0.339169
     16 H5         -1.7640    3.1930    1.9320 h1        1 MOL      0.042378
     17 H6         -4.3900    3.6690    3.3550 hc        1 MOL      0.111584
     18 H7         -3.3150    2.3120    3.7830 hc        1 MOL      0.111584
     19 N2         -2.8980    4.7430    0.3660 n         1 MOL     -0.638732
     20 C7         -3.4180    5.7090   -0.5970 c3        1 MOL      0.304139
     21 C8         -4.2380    5.0320   -1.7940 c         1 MOL      0.484861
     22 O5         -4.4070    5.6990   -2.8340 o         1 MOL     -0.546870
     23 C9         -2.2620    6.5240   -1.1940 c3        1 MOL     -0.439688
     24 H8         -2.7890    3.7800    0.0690 hn        1 MOL      0.470254
     25 H9         -4.1020    6.3600   -0.0530 h1        1 MOL      0.005731
     26 H10        -1.6480    6.7900   -0.3370 hc        1 MOL      0.117978
     27 H11        -1.7600    5.8800   -1.9250 hc        1 MOL      0.117978
     28 H12        -2.6610    7.4170   -1.6590 hc        1 MOL      0.117978
     29 N3         -4.7670    3.7890   -1.6480 n         1 MOL     -0.506325
     30 C10        -5.5570    3.0300   -2.7090 c3        1 MOL      0.295327
     31 C11        -6.7270    2.1370   -2.2450 c         1 MOL      0.271368
     32 O6         -7.6410    1.6970   -3.0070 o         1 MOL     -0.524186
     33 C12        -4.5770    2.1110   -3.4790 c3        1 MOL     -0.127604
     34 C13        -3.6900    1.3220   -2.4980 c         1 MOL      0.632083
     35 O7         -4.2450    0.6720   -1.5470 o         1 MOL     -0.675688
     36 O8         -2.4480    1.3820   -2.4890 o         1 MOL     -0.675688
     37 H13        -4.4900    3.2910   -0.8150 hn        1 MOL      0.184771
     38 H14        -5.9890    3.6840   -3.4570 h1        1 MOL      0.033482
     39 H15        -3.9040    2.6130   -4.1660 hc        1 MOL      0.028820
     40 H16        -5.2350    1.4350   -4.0320 hc        1 MOL      0.028820
     41 N4         -6.7290    1.6700   -1.0270 n         1 MOL     -0.196648
     42 C14        -7.6950    0.6920   -0.4750 c3        1 MOL     -0.122015
     43 C15        -7.6270   -0.6750   -1.0440 c         1 MOL      0.465938
     44 O9         -8.6600   -1.3490   -1.1930 o         1 MOL     -0.603085
     45 H17        -5.8590    1.7910   -0.5180 hn        1 MOL      0.165775
     46 H18        -8.6950    1.1300   -0.4500 h1        1 MOL      0.094307
     47 H19        -7.4030    0.6240    0.5680 h1        1 MOL      0.094307
     48 N5         -6.4130   -1.1700   -1.3540 n         1 MOL     -0.087447
     49 C16        -6.1330   -2.5110   -1.9050 c3        1 MOL     -0.124198
     50 C17        -5.8040   -3.5810   -0.8800 c         1 MOL      0.425449
     51 O10        -5.4330   -4.7150   -1.2680 o         1 MOL     -0.502854
     52 C18        -4.9820   -2.3980   -3.0280 c3        1 MOL     -0.056128
     53 C19        -3.6000   -2.2050   -2.5150 c         1 MOL      0.674287
     54 N6         -2.6470   -2.0100   -3.3990 n         1 MOL     -0.653436
     55 O11        -3.3030   -2.1990   -1.3290 o         1 MOL     -0.681299
     56 H20        -5.6730   -0.5130   -1.1740 hn        1 MOL      0.210364
     57 H21        -7.0800   -2.7610   -2.3850 h1        1 MOL      0.129695
     58 H22        -5.1660   -1.5870   -3.7140 hc        1 MOL      0.023274
     59 H23        -4.9460   -3.2770   -3.6720 hc        1 MOL      0.023274
     60 H24        -2.7940   -2.1560   -4.3960 hn        1 MOL      0.315005
     61 H25        -1.7230   -1.6590   -3.1830 hn        1 MOL      0.315005
     62 N7         -6.0120   -3.2890    0.4140 n         1 MOL     -0.224423
     63 C20        -5.9510   -4.2720    1.5140 c3        1 MOL     -0.226235
     64 C21        -4.5630   -4.6250    1.9740 c         1 MOL      0.504188
     65 O12        -4.3880   -5.4020    2.9380 o         1 MOL     -0.602432
     66 H26        -6.3310   -2.3380    0.5290 hn        1 MOL      0.197431
     67 H27        -6.5600   -5.1520    1.3210 h1        1 MOL      0.126781
     68 H28        -6.4190   -3.7640    2.3660 h1        1 MOL      0.126781
     69 N8         -3.5140   -4.1950    1.3010 n         1 MOL      0.079234
     70 C22        -2.1060   -4.5490    1.4480 c3        1 MOL     -0.371089
     71 C23        -1.1600   -3.3560    1.4020 c         1 MOL      0.696766
     72 O13        -1.5090   -2.3310    0.8640 o         1 MOL     -0.605501
     73 C24        -1.6160   -5.4090    0.2810 c3        1 MOL      0.570977
     74 C25        -2.2480   -6.8010    0.2530 c3        1 MOL     -0.276175
     75 O14        -1.9580   -4.8000   -0.9730 oh        1 MOL     -0.708422
     76 H29        -3.7270   -3.4710    0.6340 hn        1 MOL     -0.110793
     77 H30        -1.9370   -5.1090    2.3680 h1        1 MOL      0.111207
     78 H31        -0.5430   -5.5630    0.4120 h1        1 MOL     -0.034300
     79 H32        -2.5130   -4.0190   -0.8430 ho        1 MOL      0.510658
     80 H33        -2.0470   -7.3970   -0.6310 hc        1 MOL      0.053000
     81 H34        -1.8200   -7.4380    1.0340 hc        1 MOL      0.053000
     82 H35        -3.3320   -6.7110    0.3180 hc        1 MOL      0.053000
     83 N9         -0.0480   -3.5420    2.1310 n         1 MOL     -0.519628
     84 C26         1.0750   -2.6370    2.0500 c3        1 MOL      0.144858
     85 C27         1.6750   -2.9160    0.6850 c         1 MOL      0.418669
     86 O15         2.1160   -4.0550    0.4010 o         1 MOL     -0.564555
     87 C28         2.0570   -2.7540    3.2770 c3        1 MOL     -0.035187
     88 C29         1.7000   -1.8490    4.5360 c3        1 MOL      0.131908
     89 C30         3.5220   -2.4420    2.8970 c3        1 MOL     -0.242226
     90 C31         2.2680   -2.3600    5.8580 c3        1 MOL     -0.128731
     91 H36        -0.0490   -4.3680    2.7090 hn        1 MOL      0.285644
     92 H37         0.7990   -1.5890    2.1420 h1        1 MOL      0.042147
     93 H38         1.9810   -3.7860    3.6060 hc        1 MOL      0.042327
     94 H39         0.6170   -1.8060    4.6840 hc        1 MOL     -0.017665
     95 H40         1.9590   -0.8080    4.3520 hc        1 MOL     -0.017665
     96 H41         3.7340   -1.4580    2.4660 hc        1 MOL      0.047462
     97 H42         4.2360   -2.5320    3.7120 hc        1 MOL      0.047462
     98 H43         3.8880   -3.0450    2.0640 hc        1 MOL      0.047462
     99 H44         1.8120   -3.3500    5.9470 hc        1 MOL      0.019193
    100 H45         3.3380   -2.5200    5.7420 hc        1 MOL      0.019193
    101 H46         1.9810   -1.8280    6.7680 hc        1 MOL      0.019193
    102 N10         1.7620   -1.9100   -0.1970 n         1 MOL     -0.069865
    103 C32         2.6640   -1.8860   -1.3640 c3        1 MOL      0.059943
    104 C33         4.1230   -1.7020   -1.0040 c         1 MOL      0.508673
    105 O16         4.4820   -1.3990    0.1110 o         1 MOL     -0.337918
    106 C34         2.0390   -0.8840   -2.3410 c3        1 MOL     -0.236213
    107 C35         0.5270   -1.0530   -2.6450 c         1 MOL      0.689969
    108 O17        -0.3380   -0.4650   -1.9030 o         1 MOL     -0.645693
    109 O18         0.1800   -1.6210   -3.6790 o         1 MOL     -0.645693
    110 H47         1.3570   -1.0230    0.0640 hn        1 MOL     -0.134710
    111 H48         2.5440   -2.8610   -1.8290 h1        1 MOL      0.054020
    112 H49         2.5930   -0.8220   -3.2870 hc        1 MOL      0.081620
    113 H50         2.0670    0.1150   -1.9030 hc        1 MOL      0.081620
    114 N11         5.0120   -1.7790   -1.9710 n         1 MOL     -0.708526
    115 C36         6.4510   -1.3800   -1.6580 c3        1 MOL      0.524332
    116 C37         6.6530    0.0740   -1.1040 c         1 MOL      0.235326
    117 O19         7.0760    0.2660    0.0290 o         1 MOL     -0.460576
    118 C38         7.4770   -1.7520   -2.7300 c3        1 MOL     -0.340212
    119 C39         8.8850   -1.4630   -2.4380 ca        1 MOL      0.149530
    120 C40         9.6020   -2.0510   -1.3680 ca        1 MOL     -0.191009
    121 C41         9.5870   -0.5060   -3.3050 ca        1 MOL     -0.191009
    122 C42        10.9090   -1.6210   -1.0760 ca        1 MOL     -0.109650
    123 C43        10.9110   -0.2200   -3.0830 ca        1 MOL     -0.109650
    124 C44        11.5280   -0.6910   -1.9210 ca        1 MOL     -0.094487
    125 H51         4.7600   -2.0260   -2.9260 hn        1 MOL      0.339651
    126 H52         6.6690   -1.9990   -0.7850 h1        1 MOL     -0.001917
    127 H53         7.1550   -1.2040   -3.6170 hc        1 MOL      0.083293
    128 H54         7.3850   -2.8150   -2.9620 hc        1 MOL      0.083293
    129 H55         9.1280   -2.7960   -0.7390 ha        1 MOL      0.132268
    130 H56         9.0980   -0.0960   -4.1790 ha        1 MOL      0.132268
    131 H57        11.3460   -2.0620   -0.1820 ha        1 MOL      0.114566
    132 H58        11.4040    0.4030   -3.8010 ha        1 MOL      0.114566
    133 H59        12.5440   -0.4310   -1.6640 ha        1 MOL      0.088676
    134 N12         6.2070    1.1620   -1.8200 n         1 MOL     -0.016383
    135 C45         6.3900    2.5180   -1.3620 c3        1 MOL     -0.002469
    136 C46         5.7680    2.8670   -0.0110 c         1 MOL      0.267380
    137 O20         6.1010    3.8840    0.5490 o         1 MOL     -0.513439
    138 C47         5.7580    3.4150   -2.4850 c3        1 MOL     -0.017948
    139 C48         5.7320    2.4850   -3.7000 c3        1 MOL     -0.399860
    140 C49         5.5300    1.0910   -3.1250 c3        1 MOL      0.115692
    141 H60         7.4550    2.7500   -1.2820 h1        1 MOL      0.084894
    142 H61         4.7350    3.6790   -2.2070 hc        1 MOL      0.066122
    143 H62         6.3690    4.2800   -2.7300 hc        1 MOL      0.066122
    144 H63         4.7770    2.7510   -4.1610 hc        1 MOL      0.125611
    145 H64         6.6310    2.7100   -4.2710 hc        1 MOL      0.125611
    146 H65         4.4730    0.8640   -3.0050 h1        1 MOL      0.009749
    147 H66         5.9970    0.3470   -3.7760 h1        1 MOL      0.009749
    148 N13         4.9040    1.9920    0.5160 n         1 MOL     -0.023309
    149 C50         4.2220    1.9370    1.8470 c3        1 MOL      0.029687
    150 C51         5.0920    1.1090    2.9490 c         1 MOL      0.367333
    151 O21         5.1810    1.5920    4.0620 o         1 MOL     -0.558553
    152 C52         2.8250    1.3680    1.6790 c3        1 MOL     -0.169388
    153 C53         1.9190    2.1040    0.8010 c3        1 MOL     -0.298858
    154 C54         0.5190    1.5740    0.7950 c         1 MOL      0.943011
    155 O22         0.2920    0.3670    1.0070 o         1 MOL     -0.806282
    156 O23        -0.4070    2.2490    0.3270 o         1 MOL     -0.806282
    157 H67         4.7480    1.1920   -0.0870 hn        1 MOL      0.042000
    158 H68         4.2150    2.9960    2.1250 h1        1 MOL      0.086708
    159 H69         2.3800    1.3920    2.6690 hc        1 MOL      0.102829
    160 H70         2.9620    0.3630    1.2920 hc        1 MOL      0.102829
    161 H71         2.2480    1.9530   -0.2370 hc        1 MOL      0.100811
    162 H72         1.9260    3.1190    1.1950 hc        1 MOL      0.100811
    163 N14         5.8380    0.0880    2.5840 n         1 MOL      0.090696
    164 C55         6.9240   -0.4610    3.3390 c3        1 MOL     -0.194687
    165 H73         7.8540   -0.3330    2.7850 h1        1 MOL      0.068283
    166 H74         6.9990    0.0550    4.2960 h1        1 MOL      0.068283
    167 H75         6.7460   -1.5230    3.5120 h1        1 MOL      0.068283
    168 H76         5.7880   -0.2190    1.6240 hn        1 MOL      0.039772
    169 Ca1        -2.0820    0.0190   -0.2130 Ca        1 MOL      1.801690
    170 O24        -4.4870   -0.7830    1.3520 oh        1 MOL     -0.731758
    171 H77        -5.0750   -1.3740    1.8130 ho        1 MOL      0.356991
    172 H78        -4.8020    0.0970    1.5540 ho        1 MOL      0.356991
    173 O25        -1.9290    0.0920    2.8750 oh        1 MOL     -0.731758
    174 H79        -2.1830    0.4570    3.7220 ho        1 MOL      0.356991
    175 H80        -1.0110    0.3170    2.7840 ho        1 MOL      0.356991
@<TRIPOS>BOND
     1    1    2 1   
     2    1    4 1   
     3    1    5 1   
     4    1    6 1   
     5    2    3 2   
     6    2    7 1   
     7    7    8 1   
     8    7   15 1   
     9    8    9 1   
    10    8   11 1   
    11    8   16 1   
    12    9   10 2   
    13    9   19 1   
    14   11   12 1   
    15   11   17 1   
    16   11   18 1   
    17   12   13 1   
    18   12   14 1   
    19   19   20 1   
    20   19   24 1   
    21   20   21 1   
    22   20   23 1   
    23   20   25 1   
    24   21   22 2   
    25   21   29 1   
    26   23   26 1   
    27   23   27 1   
    28   23   28 1   
    29   29   30 1   
    30   29   37 1   
    31   30   31 1   
    32   30   33 1   
    33   30   38 1   
    34   31   32 2   
    35   31   41 1   
    36   33   34 1   
    37   33   39 1   
    38   33   40 1   
    39   34   35 1   
    40   34   36 1   
    41   41   42 1   
    42   41   45 1   
    43   42   43 1   
    44   42   46 1   
    45   42   47 1   
    46   43   44 2   
    47   43   48 1   
    48   48   49 1   
    49   48   56 1   
    50   49   50 1   
    51   49   52 1   
    52   49   57 1   
    53   50   51 2   
    54   50   62 1   
    55   52   53 1   
    56   52   58 1   
    57   52   59 1   
    58   53   54 1   
    59   53   55 2   
    60   54   60 1   
    61   54   61 1   
    62   62   63 1   
    63   62   66 1   
    64   63   64 1   
    65   63   67 1   
    66   63   68 1   
    67   64   65 2   
    68   64   69 1   
    69   69   70 1   
    70   69   76 1   
    71   70   71 1   
    72   70   73 1   
    73   70   77 1   
    74   71   72 2   
    75   71   83 1   
    76   73   74 1   
    77   73   75 1   
    78   73   78 1   
    79   74   80 1   
    80   74   81 1   
    81   74   82 1   
    82   75   79 1   
    83   83   84 1   
    84   83   91 1   
    85   84   85 1   
    86   84   87 1   
    87   84   92 1   
    88   85   86 2   
    89   85  102 1   
    90   87   88 1   
    91   87   89 1   
    92   87   93 1   
    93   88   90 1   
    94   88   94 1   
    95   88   95 1   
    96   89   96 1   
    97   89   97 1   
    98   89   98 1   
    99   90   99 1   
   100   90  100 1   
   101   90  101 1   
   102  102  103 1   
   103  102  110 1   
   104  103  104 1   
   105  103  106 1   
   106  103  111 1   
   107  104  105 2   
   108  104  114 1   
   109  106  107 1   
   110  106  112 1   
   111  106  113 1   
   112  107  108 1   
   113  107  109 1   
   114  114  115 1   
   115  114  125 1   
   116  115  116 1   
   117  115  118 1   
   118  115  126 1   
   119  116  117 2   
   120  116  134 1   
   121  118  119 1   
   122  118  127 1   
   123  118  128 1   
   124  119  120 ar  
   125  119  121 ar  
   126  120  122 ar  
   127  120  129 1   
   128  121  123 ar  
   129  121  130 1   
   130  122  124 ar  
   131  122  131 1   
   132  123  124 ar  
   133  123  132 1   
   134  124  133 1   
   135  134  135 1   
   136  134  140 1   
   137  135  136 1   
   138  135  138 1   
   139  135  141 1   
   140  136  137 2   
   141  136  148 1   
   142  138  139 1   
   143  138  142 1   
   144  138  143 1   
   145  139  140 1   
   146  139  144 1   
   147  139  145 1   
   148  140  146 1   
   149  140  147 1   
   150  148  149 1   
   151  148  157 1   
   152  149  150 1   
   153  149  152 1   
   154  149  158 1   
   155  150  151 2   
   156  150  163 1   
   157  152  153 1   
   158  152  159 1   
   159  152  160 1   
   160  153  154 1   
   161  153  161 1   
   162  153  162 1   
   163  154  155 1   
   164  154  156 1   
   165  163  164 1   
   166  163  168 1   
   167  164  165 1   
   168  164  166 1   
   169  164  167 1   
   170  170  171 1   
   171  170  172 1   
   172  173  174 1   
   173  173  175 1   
@<TRIPOS>SUBSTRUCTURE
     1 MOL         1 TEMP              0 ****  ****    0 ROOT
