@<TRIPOS>MOLECULE
MOL
  189   185     1     0     0
SMALL
resp


@<TRIPOS>ATOM
      1 C1         -0.0860    3.1960    4.8690 c3        1 MOL     -0.457859
      2 C2         -0.5520    2.8490    3.4690 c         1 MOL      0.635778
      3 O1          0.0690    3.2280    2.4840 o         1 MOL     -0.562501
      4 H1          0.9970    3.3130    4.8730 hc        1 MOL      0.115142
      5 H2         -0.5520    4.1290    5.1870 hc        1 MOL      0.115142
      6 H3         -0.3680    2.3970    5.5550 hc        1 MOL      0.115142
      7 N1         -1.7230    2.1870    3.4390 n         1 MOL     -0.432269
      8 C3         -2.4510    1.8520    2.2320 c3        1 MOL      0.054521
      9 C4         -3.2070    3.0080    1.5850 c         1 MOL      0.352080
     10 O2         -4.3950    3.1650    1.6400 o         1 MOL     -0.450915
     11 C5         -3.3860    0.6830    2.5490 c3        1 MOL     -0.153350
     12 C6         -4.0550    0.1620    1.3540 c         1 MOL      0.715733
     13 O3         -3.4200    0.3250    0.3070 o         1 MOL     -0.706262
     14 O4         -5.0730   -0.5780    1.4180 o         1 MOL     -0.706262
     15 H4         -2.1130    1.8340    4.3040 hn        1 MOL      0.277779
     16 H5         -1.6140    1.5620    1.5980 h1        1 MOL      0.079961
     17 H6         -4.1090    1.0070    3.2970 hc        1 MOL      0.055979
     18 H7         -2.8870   -0.1530    3.0390 hc        1 MOL      0.055979
     19 N2         -2.4200    3.7310    0.8410 n         1 MOL     -0.257130
     20 C7         -2.8200    5.0060    0.1250 c3        1 MOL      0.067734
     21 C8         -3.7860    4.9430   -1.0340 c         1 MOL      0.451937
     22 O5         -4.4340    5.9070   -1.3890 o         1 MOL     -0.569205
     23 C9         -1.5140    5.8430   -0.2830 c3        1 MOL     -0.257226
     24 C10        -0.9750    6.4270    1.0490 c3        1 MOL      0.072910
     25 C11         0.1640    7.4270    0.7160 c3        1 MOL      0.113059
     26 C12         0.7100    8.1470    1.8900 c3        1 MOL     -0.048111
     27 N3          0.8510    7.3190    3.0990 n4        1 MOL     -0.377493
     28 H8         -1.5170    3.3660    0.5790 hn        1 MOL      0.275207
     29 H9         -3.3990    5.6390    0.7940 h1        1 MOL      0.063215
     30 H10        -1.7190    6.7080   -0.9150 hc        1 MOL      0.096539
     31 H11        -0.8140    5.2010   -0.8180 hc        1 MOL      0.096539
     32 H12        -0.7400    5.6900    1.8030 hc        1 MOL     -0.017358
     33 H13        -1.7580    7.1130    1.4000 hc        1 MOL     -0.017358
     34 H14        -0.1080    8.1820   -0.0340 hc        1 MOL      0.016403
     35 H15         1.0000    6.8860    0.2740 hc        1 MOL      0.016403
     36 H16         0.1330    9.0640    2.0240 hx        1 MOL      0.086885
     37 H17         1.6800    8.5190    1.5610 hx        1 MOL      0.086885
     38 H18         1.3240    7.8430    3.8190 hn        1 MOL      0.339089
     39 H19        -0.0500    7.0040    3.4420 hn        1 MOL      0.339089
     40 H20         1.3880    6.5190    2.8150 hn        1 MOL      0.339089
     41 N4         -3.8770    3.7930   -1.7010 n         1 MOL     -0.155835
     42 C13        -4.8400    3.5760   -2.7860 c3        1 MOL      0.073905
     43 C14        -5.9510    2.6060   -2.3370 c         1 MOL      0.330718
     44 O6         -6.8620    2.2830   -3.1140 o         1 MOL     -0.499993
     45 C15        -4.1590    3.1600   -4.1170 c3        1 MOL     -0.342447
     46 C16        -3.2300    1.9260   -4.0810 c         1 MOL      0.863334
     47 O7         -3.0380    1.2650   -3.0350 o         1 MOL     -0.693105
     48 O8         -2.5510    1.6050   -5.0630 o         1 MOL     -0.693105
     49 H21        -3.2070    3.0650   -1.4910 hn        1 MOL      0.142510
     50 H22        -5.3210    4.5380   -2.9530 h1        1 MOL      0.105351
     51 H23        -3.4010    3.9200   -4.2930 hc        1 MOL      0.080716
     52 H24        -4.9140    3.0830   -4.9040 hc        1 MOL      0.080716
     53 N5         -5.8880    2.1930   -1.0750 n         1 MOL     -0.008950
     54 C17        -7.0520    1.5970   -0.3860 c3        1 MOL     -0.148801
     55 C18        -7.5480    0.2770   -0.9210 c         1 MOL      0.527556
     56 O9         -8.7760    0.1390   -0.9010 o         1 MOL     -0.583458
     57 H25        -5.0600    2.4160   -0.5440 hn        1 MOL     -0.020377
     58 H26        -7.8480    2.3510   -0.3790 h1        1 MOL      0.095907
     59 H27        -6.7880    1.3300    0.6350 h1        1 MOL      0.095907
     60 N6         -6.6780   -0.6310   -1.2860 n         1 MOL     -0.217654
     61 C19        -6.9390   -2.0420   -1.6790 c3        1 MOL     -0.052243
     62 C20        -6.9290   -3.0570   -0.5750 c         1 MOL      0.443905
     63 O10        -7.3900   -4.1640   -0.8590 o         1 MOL     -0.561050
     64 C21        -5.8880   -2.4810   -2.7210 c3        1 MOL     -0.164530
     65 C22        -4.4620   -2.2880   -2.4020 c         1 MOL      0.775066
     66 O11        -4.0420   -2.3790   -1.2600 o         1 MOL     -0.713301
     67 O12        -3.6960   -1.8510   -3.2960 o         1 MOL     -0.713301
     68 H28        -5.7190   -0.4560   -1.0240 hn        1 MOL      0.084237
     69 H29        -7.9700   -2.1050   -2.0360 h1        1 MOL      0.124731
     70 H30        -5.9890   -1.9190   -3.6470 hc        1 MOL      0.061196
     71 H31        -6.1620   -3.4690   -3.0670 hc        1 MOL      0.061196
     72 N7         -6.4650   -2.8040    0.6240 n         1 MOL     -0.215645
     73 C23        -6.4510   -3.7420    1.7050 c3        1 MOL     -0.152451
     74 C24        -5.1340   -4.4610    1.9090 c         1 MOL      0.582371
     75 O13        -5.0320   -5.3320    2.7860 o         1 MOL     -0.594214
     76 H32        -5.9910   -1.9300    0.7680 hn        1 MOL      0.268623
     77 H33        -7.1570   -4.5670    1.5860 h1        1 MOL      0.092585
     78 H34        -6.6670   -3.2370    2.6510 h1        1 MOL      0.092585
     79 N8         -4.0460   -3.9860    1.3120 n         1 MOL     -0.250744
     80 C25        -2.7050   -4.6010    1.2470 c3        1 MOL     -0.473054
     81 C26        -1.6300   -3.4690    1.2780 c         1 MOL      0.787715
     82 O14        -1.7230   -2.4620    0.5530 o         1 MOL     -0.674746
     83 C27        -2.4530   -5.4980    0.0000 c3        1 MOL      0.530546
     84 C28        -3.0600   -6.8850    0.1870 c3        1 MOL     -0.467250
     85 O15        -3.0050   -4.9840   -1.1970 oh        1 MOL     -0.592551
     86 H35        -4.0860   -3.2220    0.6540 hn        1 MOL      0.295422
     87 H36        -2.5630   -5.1520    2.1820 h1        1 MOL      0.170411
     88 H37        -1.3880   -5.7160   -0.1390 h1        1 MOL     -0.022092
     89 H38        -3.5910   -4.3090   -0.8580 ho        1 MOL      0.365629
     90 H39        -2.5050   -7.3900    0.9750 hc        1 MOL      0.117473
     91 H40        -4.1160   -6.6720    0.3270 hc        1 MOL      0.117473
     92 H41        -2.9580   -7.5210   -0.6970 hc        1 MOL      0.117473
     93 N9         -0.6240   -3.6830    2.1170 n         1 MOL     -0.608313
     94 C29         0.5680   -2.8510    2.1690 c3        1 MOL      0.026878
     95 C30         1.7320   -3.4710    1.4390 c         1 MOL      0.397754
     96 O16         2.0740   -4.6270    1.6430 o         1 MOL     -0.544950
     97 C31         0.9050   -2.5270    3.6380 c3        1 MOL      0.243352
     98 C32        -0.3070   -2.1020    4.5550 c3        1 MOL      0.068826
     99 C33         1.8380   -1.2880    3.6260 c3        1 MOL     -0.406363
    100 C34         0.0420   -2.1710    6.0350 c3        1 MOL     -0.200711
    101 H42        -0.7390   -4.4250    2.7950 hn        1 MOL      0.296781
    102 H43         0.2660   -1.9020    1.7200 h1        1 MOL      0.124485
    103 H44         1.4820   -3.3410    4.0860 hc        1 MOL     -0.012618
    104 H45        -1.1880   -2.7340    4.4290 hc        1 MOL      0.004109
    105 H46        -0.6140   -1.1320    4.1590 hc        1 MOL      0.004109
    106 H47         2.1050   -1.0040    4.6380 hc        1 MOL      0.064286
    107 H48         2.8170   -1.3630    3.1470 hc        1 MOL      0.064286
    108 H49         1.2670   -0.5370    3.0840 hc        1 MOL      0.064286
    109 H50        -0.7520   -1.6570    6.5840 hc        1 MOL      0.049622
    110 H51         0.1250   -3.1760    6.4360 hc        1 MOL      0.049622
    111 H52         0.9670   -1.6160    6.1800 hc        1 MOL      0.049622
    112 N10         2.4340   -2.6540    0.7030 n         1 MOL      0.030030
    113 C35         3.6380   -2.9280   -0.0510 c3        1 MOL     -0.186960
    114 C36         4.9370   -2.3880    0.4930 c         1 MOL      0.469119
    115 O17         4.8810   -1.3860    1.2150 o         1 MOL     -0.386752
    116 C37         3.4800   -2.2970   -1.4520 c3        1 MOL      0.193081
    117 C38         2.4910   -2.9880   -2.3210 c3        1 MOL     -0.332636
    118 O18         3.0690   -0.9250   -1.3160 oh        1 MOL     -0.554051
    119 H53         1.9170   -1.8230    0.4450 hn        1 MOL      0.174147
    120 H54         3.6730   -4.0090   -0.1710 h1        1 MOL      0.072185
    121 H55         4.4560   -2.2640   -1.9320 h1        1 MOL      0.011225
    122 H56         2.1900   -0.8970   -0.9340 ho        1 MOL      0.388159
    123 H57         2.2520   -2.4350   -3.2350 hc        1 MOL      0.102930
    124 H58         2.8920   -3.8890   -2.8020 hc        1 MOL      0.102930
    125 H59         1.5610   -3.2040   -1.7970 hc        1 MOL      0.102930
    126 N11         6.0870   -2.9480    0.1150 n         1 MOL     -0.413575
    127 C39         7.3530   -2.2870    0.5600 c3        1 MOL     -0.027377
    128 C40         7.3560   -0.8040    0.2780 c         1 MOL      0.114370
    129 O19         7.8080    0.0240    1.0940 o         1 MOL     -0.445178
    130 C41         8.5890   -2.8380   -0.0120 c3        1 MOL      0.220301
    131 C42         8.8930   -4.2780    0.2200 c3        1 MOL     -0.462450
    132 O20         8.6230   -2.5800   -1.4060 oh        1 MOL     -0.598454
    133 H60         6.1260   -3.8520   -0.3300 hn        1 MOL      0.325176
    134 H61         7.4210   -2.4040    1.6380 h1        1 MOL      0.134311
    135 H62         9.4220   -2.3320    0.4800 h1        1 MOL      0.077299
    136 H63         9.5360   -2.5580   -1.7080 ho        1 MOL      0.393318
    137 H64         9.8890   -4.5650   -0.1230 hc        1 MOL      0.138142
    138 H65         9.0030   -4.4990    1.2820 hc        1 MOL      0.138142
    139 H66         8.1290   -4.9140   -0.2310 hc        1 MOL      0.138142
    140 N12         6.9410   -0.3550   -0.9180 n         1 MOL      0.086192
    141 C43         6.9800    1.0780   -1.1730 c3        1 MOL     -0.086546
    142 C44         6.1380    1.9340   -0.2920 c         1 MOL      0.350096
    143 O21         6.4920    3.0670    0.0430 o         1 MOL     -0.508110
    144 C45         6.6320    1.2960   -2.6820 c3        1 MOL     -0.452889
    145 C46         7.4820    0.4600   -3.6210 c3        1 MOL      0.083137
    146 C47         8.9840    0.9060   -3.7300 c3        1 MOL     -0.089941
    147 C48         9.6290   -0.0530   -4.8100 c3        1 MOL      0.029341
    148 N13        11.0190    0.3920   -5.1910 n4        1 MOL     -0.181279
    149 H67         6.8110   -1.0330   -1.6540 hn        1 MOL      0.235001
    150 H68         7.9750    1.5090   -1.0770 h1        1 MOL      0.095985
    151 H69         6.7270    2.3330   -3.0020 hc        1 MOL      0.179823
    152 H70         5.6170    0.9750   -2.9340 hc        1 MOL      0.179823
    153 H71         7.0650    0.5630   -4.6190 hc        1 MOL      0.013214
    154 H72         7.5760   -0.5790   -3.3000 hc        1 MOL      0.013214
    155 H73         9.5110    0.8370   -2.7800 hc        1 MOL      0.064935
    156 H74         9.0100    1.9120   -4.1460 hc        1 MOL      0.064935
    157 H75         9.0020   -0.0400   -5.7060 hx        1 MOL      0.069652
    158 H76         9.6810   -1.0750   -4.4390 hx        1 MOL      0.069652
    159 H77        11.1670    1.3610   -5.4280 hn        1 MOL      0.234308
    160 H78        11.7180    0.1750   -4.4910 hn        1 MOL      0.234308
    161 H79        11.3410   -0.1270   -6.0000 hn        1 MOL      0.234308
    162 N14         4.9640    1.4090    0.1490 n         1 MOL      0.105748
    163 C49         4.0780    2.1420    1.0540 c3        1 MOL     -0.406584
    164 C50         4.5880    2.2490    2.5080 c         1 MOL      0.604674
    165 O22         4.2970    3.2460    3.1740 o         1 MOL     -0.589061
    166 C51         2.5940    1.4870    1.1050 c3        1 MOL      0.139748
    167 C52         1.8610    1.8940   -0.2400 c3        1 MOL     -0.096367
    168 C53         0.6350    0.9970   -0.4690 c         1 MOL      0.773388
    169 O23        -0.4310    1.5200   -0.8340 o         1 MOL     -0.761897
    170 O24         0.6560   -0.2460   -0.3190 o         1 MOL     -0.761897
    171 H80         4.7000    0.4690   -0.1170 hn        1 MOL      0.019115
    172 H81         3.9400    3.1300    0.6260 h1        1 MOL      0.150406
    173 H82         2.0170    1.8520    1.9480 hc        1 MOL      0.006888
    174 H83         2.8020    0.4110    1.1550 hc        1 MOL      0.006888
    175 H84         2.5940    1.6760   -1.0200 hc        1 MOL      0.004325
    176 H85         1.6720    2.9710   -0.2480 hc        1 MOL      0.004325
    177 N15         5.2550    1.2490    3.1300 n         1 MOL     -0.237442
    178 C54         6.0080    1.3140    4.3930 c3        1 MOL     -0.226424
    179 H86         7.0760    1.2520    4.1820 h1        1 MOL      0.099243
    180 H87         5.7920    2.2550    4.8990 h1        1 MOL      0.099243
    181 H88         5.7160    0.4820    5.0340 h1        1 MOL      0.099243
    182 H89         5.3150    0.3550    2.6500 hn        1 MOL      0.252448
    183 Ca1        -1.9260   -0.4890   -1.5070 Ca        1 MOL      1.785888
    184 O25        -1.0680   -2.8680   -2.4950 oh        1 MOL     -0.869957
    185 H90        -1.7880   -3.4850   -2.6000 ho        1 MOL      0.400003
    186 H91        -0.2790   -3.3980   -2.5590 ho        1 MOL      0.400003
    187 O26        -0.4990    0.1280   -4.0170 oh        1 MOL     -0.869957
    188 H92        -1.2340    0.5190   -4.4850 ho        1 MOL      0.400003
    189 H93        -0.0300   -0.3740   -4.6720 ho        1 MOL      0.400003
@<TRIPOS>BOND
     1    1    2 1   
     2    1    4 1   
     3    1    5 1   
     4    1    6 1   
     5    2    3 2   
     6    2    7 1   
     7    7    8 1   
     8    7   15 1   
     9    8    9 1   
    10    8   11 1   
    11    8   16 1   
    12    9   10 2   
    13    9   19 1   
    14   11   12 1   
    15   11   17 1   
    16   11   18 1   
    17   12   13 1   
    18   12   14 1   
    19   19   20 1   
    20   19   28 1   
    21   20   21 1   
    22   20   23 1   
    23   20   29 1   
    24   21   22 2   
    25   21   41 1   
    26   23   24 1   
    27   23   30 1   
    28   23   31 1   
    29   24   25 1   
    30   24   32 1   
    31   24   33 1   
    32   25   26 1   
    33   25   34 1   
    34   25   35 1   
    35   26   27 1   
    36   26   36 1   
    37   26   37 1   
    38   27   38 1   
    39   27   39 1   
    40   27   40 1   
    41   41   42 1   
    42   41   49 1   
    43   42   43 1   
    44   42   45 1   
    45   42   50 1   
    46   43   44 2   
    47   43   53 1   
    48   45   46 1   
    49   45   51 1   
    50   45   52 1   
    51   46   47 1   
    52   46   48 1   
    53   53   54 1   
    54   53   57 1   
    55   54   55 1   
    56   54   58 1   
    57   54   59 1   
    58   55   56 2   
    59   55   60 1   
    60   60   61 1   
    61   60   68 1   
    62   61   62 1   
    63   61   64 1   
    64   61   69 1   
    65   62   63 2   
    66   62   72 1   
    67   64   65 1   
    68   64   70 1   
    69   64   71 1   
    70   65   66 1   
    71   65   67 1   
    72   72   73 1   
    73   72   76 1   
    74   73   74 1   
    75   73   77 1   
    76   73   78 1   
    77   74   75 2   
    78   74   79 1   
    79   79   80 1   
    80   79   86 1   
    81   80   81 1   
    82   80   83 1   
    83   80   87 1   
    84   81   82 2   
    85   81   93 1   
    86   83   84 1   
    87   83   85 1   
    88   83   88 1   
    89   84   90 1   
    90   84   91 1   
    91   84   92 1   
    92   85   89 1   
    93   93   94 1   
    94   93  101 1   
    95   94   95 1   
    96   94   97 1   
    97   94  102 1   
    98   95   96 2   
    99   95  112 1   
   100   97   98 1   
   101   97   99 1   
   102   97  103 1   
   103   98  100 1   
   104   98  104 1   
   105   98  105 1   
   106   99  106 1   
   107   99  107 1   
   108   99  108 1   
   109  100  109 1   
   110  100  110 1   
   111  100  111 1   
   112  112  113 1   
   113  112  119 1   
   114  113  114 1   
   115  113  116 1   
   116  113  120 1   
   117  114  115 2   
   118  114  126 1   
   119  116  117 1   
   120  116  118 1   
   121  116  121 1   
   122  117  123 1   
   123  117  124 1   
   124  117  125 1   
   125  118  122 1   
   126  126  127 1   
   127  126  133 1   
   128  127  128 1   
   129  127  130 1   
   130  127  134 1   
   131  128  129 2   
   132  128  140 1   
   133  130  131 1   
   134  130  132 1   
   135  130  135 1   
   136  131  137 1   
   137  131  138 1   
   138  131  139 1   
   139  132  136 1   
   140  140  141 1   
   141  140  149 1   
   142  141  142 1   
   143  141  144 1   
   144  141  150 1   
   145  142  143 2   
   146  142  162 1   
   147  144  145 1   
   148  144  151 1   
   149  144  152 1   
   150  145  146 1   
   151  145  153 1   
   152  145  154 1   
   153  146  147 1   
   154  146  155 1   
   155  146  156 1   
   156  147  148 1   
   157  147  157 1   
   158  147  158 1   
   159  148  159 1   
   160  148  160 1   
   161  148  161 1   
   162  162  163 1   
   163  162  171 1   
   164  163  164 1   
   165  163  166 1   
   166  163  172 1   
   167  164  165 2   
   168  164  177 1   
   169  166  167 1   
   170  166  173 1   
   171  166  174 1   
   172  167  168 1   
   173  167  175 1   
   174  167  176 1   
   175  168  169 1   
   176  168  170 1   
   177  177  178 1   
   178  177  182 1   
   179  178  179 1   
   180  178  180 1   
   181  178  181 1   
   182  184  185 1   
   183  184  186 1   
   184  187  188 1   
   185  187  189 1   
@<TRIPOS>SUBSTRUCTURE
     1 MOL         1 TEMP              0 ****  ****    0 ROOT
