@<TRIPOS>MOLECULE
MOL
  179   176     1     0     0
SMALL
resp


@<TRIPOS>ATOM
      1 C1          2.9640    2.8050    4.1090 c3        1 MOL     -0.395823
      2 C2          1.9310    2.7590    2.9860 c         1 MOL      0.638841
      3 O1          2.4160    2.9200    1.8720 o         1 MOL     -0.606365
      4 H1          3.0520    1.8170    4.5630 hc        1 MOL      0.106631
      5 H2          3.9300    3.1050    3.7030 hc        1 MOL      0.106631
      6 H3          2.6480    3.5250    4.8650 hc        1 MOL      0.106631
      7 N1          0.6250    2.6490    3.1810 n         1 MOL     -0.577764
      8 C3         -0.3840    2.5590    2.1220 c3        1 MOL      0.240212
      9 C4         -0.8770    3.9300    1.5810 c         1 MOL      0.626198
     10 O2         -1.9870    4.4100    1.8020 o         1 MOL     -0.459576
     11 C5         -1.4950    1.6020    2.5750 c3        1 MOL     -0.398805
     12 C6         -2.6310    1.3760    1.5300 c         1 MOL      0.710867
     13 O3         -3.8080    1.1450    1.8510 o         1 MOL     -0.684370
     14 O4         -2.3400    1.4330    0.3310 o         1 MOL     -0.684370
     15 H4          0.4010    2.3510    4.1240 hn        1 MOL      0.321276
     16 H5          0.1160    2.1640    1.2400 h1        1 MOL      0.038792
     17 H6         -1.9560    2.0640    3.4490 hc        1 MOL      0.096594
     18 H7         -1.1160    0.6200    2.8490 hc        1 MOL      0.096594
     19 N2          0.0440    4.7380    1.0310 n         1 MOL     -0.747387
     20 C7         -0.1840    6.0520    0.4020 c3        1 MOL      0.242989
     21 C8         -1.2790    6.1510   -0.6530 c         1 MOL      0.324587
     22 O5         -2.0610    7.0970   -0.6820 o         1 MOL     -0.525062
     23 C9          1.0860    6.7060   -0.1630 c3        1 MOL     -0.168835
     24 C10         2.1880    6.8700    0.8680 c3        1 MOL      0.260212
     25 C11         3.3360    7.6350    0.2760 c3        1 MOL     -0.111521
     26 C12         4.4070    8.1000    1.2710 c3        1 MOL     -0.050057
     27 N3          5.1520    6.9620    1.8740 n4        1 MOL     -0.345236
     28 H8          0.9520    4.3210    0.8640 hn        1 MOL      0.409030
     29 H9         -0.4480    6.8300    1.1160 h1        1 MOL      0.056000
     30 H10         0.7970    7.7040   -0.5020 hc        1 MOL      0.054903
     31 H11         1.5330    6.1450   -0.9820 hc        1 MOL      0.054903
     32 H12         2.5240    5.8540    1.0970 hc        1 MOL     -0.048884
     33 H13         1.8160    7.4160    1.7310 hc        1 MOL     -0.048884
     34 H14         2.8460    8.4990   -0.1710 hc        1 MOL      0.059770
     35 H15         3.7580    6.9930   -0.4870 hc        1 MOL      0.059770
     36 H16         3.9560    8.6650    2.0810 hx        1 MOL      0.113605
     37 H17         5.1410    8.7230    0.7600 hx        1 MOL      0.113605
     38 H18         5.5880    6.4000    1.1640 hn        1 MOL      0.329971
     39 H19         5.9430    7.2280    2.4450 hn        1 MOL      0.329971
     40 H20         4.6080    6.2620    2.3640 hn        1 MOL      0.329971
     41 N4         -1.3840    5.1620   -1.4990 n         1 MOL     -0.328140
     42 C13        -2.4760    5.0680   -2.4670 c3        1 MOL      0.173746
     43 C14        -3.8390    4.6250   -1.8380 c         1 MOL      0.332725
     44 O6         -4.8870    4.8590   -2.4490 o         1 MOL     -0.531354
     45 C15        -2.1820    4.1080   -3.6300 c3        1 MOL     -0.391119
     46 C16        -1.8170    2.7380   -3.0590 c         1 MOL      0.912221
     47 O7         -2.5990    1.7260   -3.1660 o         1 MOL     -0.763994
     48 O8         -0.7490    2.5370   -2.4990 o         1 MOL     -0.763994
     49 H21        -0.7070    4.4420   -1.3220 hn        1 MOL      0.250810
     50 H22        -2.6910    6.0500   -2.8790 h1        1 MOL      0.100706
     51 H23        -1.2880    4.5530   -4.0650 hc        1 MOL      0.088660
     52 H24        -2.9750    4.0550   -4.3730 hc        1 MOL      0.088660
     53 N5         -3.8730    4.1420   -0.5880 n         1 MOL      0.034779
     54 C17        -5.0790    3.8940    0.2190 c3        1 MOL     -0.049815
     55 C18        -5.9740    2.7940   -0.2230 c         1 MOL      0.494613
     56 O9         -7.1790    2.9420    0.0130 o         1 MOL     -0.560399
     57 H25        -3.0000    4.0260   -0.0970 hn        1 MOL      0.026893
     58 H26        -5.6880    4.7960    0.2980 h1        1 MOL      0.072114
     59 H27        -4.8230    3.7410    1.2660 h1        1 MOL      0.072114
     60 N6         -5.4940    1.6840   -0.9200 n         1 MOL     -0.138040
     61 C19        -6.2740    0.5190   -1.2510 c3        1 MOL     -0.184798
     62 C20        -6.5400   -0.5040   -0.1670 c         1 MOL      0.455883
     63 O10        -7.2530   -1.4510   -0.4480 o         1 MOL     -0.536573
     64 C21        -5.8440    0.0770   -2.5850 c3        1 MOL      0.030560
     65 C22        -4.6320   -0.8740   -2.4880 c         1 MOL      0.561310
     66 N7         -4.5600   -1.9090   -3.3000 n         1 MOL     -0.788240
     67 O11        -3.9110   -0.7910   -1.4780 o         1 MOL     -0.670523
     68 H28        -4.5000    1.6790   -1.0510 hn        1 MOL      0.000778
     69 H29        -7.2620    0.9310   -1.4890 h1        1 MOL      0.135265
     70 H30        -5.5700    0.8810   -3.2690 hc        1 MOL      0.045746
     71 H31        -6.6350   -0.4420   -3.1200 hc        1 MOL      0.045746
     72 H32        -5.2670   -2.0330   -4.0060 hn        1 MOL      0.385760
     73 H33        -3.8720   -2.6230   -3.1010 hn        1 MOL      0.385760
     74 N8         -6.1010   -0.1960    1.0050 n         1 MOL     -0.201030
     75 C23        -6.2730   -1.0560    2.1620 c3        1 MOL     -0.274232
     76 C24        -5.1920   -2.0840    2.3590 c         1 MOL      0.568403
     77 O12        -5.3160   -2.9720    3.2480 o         1 MOL     -0.579474
     78 H34        -5.4660    0.5790    1.0050 hn        1 MOL      0.288287
     79 H35        -7.2180   -1.5830    2.0150 h1        1 MOL      0.143167
     80 H36        -6.4040   -0.4340    3.0540 h1        1 MOL      0.143167
     81 N9         -4.1250   -2.1170    1.5740 n         1 MOL     -0.459645
     82 C25        -3.0670   -3.1420    1.4770 c3        1 MOL      0.385629
     83 C26        -1.6810   -2.4820    1.3260 c         1 MOL      0.240101
     84 O13        -1.5280   -1.4560    0.6300 o         1 MOL     -0.597689
     85 C27        -3.3650   -4.0980    0.2900 c3        1 MOL      0.366738
     86 C28        -4.5910   -4.9740    0.2050 ca        1 MOL     -0.345611
     87 C29        -4.6430   -6.1310    0.9410 ca        1 MOL      0.031342
     88 C30        -5.7390   -4.4130   -0.3790 ca        1 MOL      0.031342
     89 C31        -5.8590   -6.7990    0.9700 ca        1 MOL     -0.316938
     90 C32        -6.9280   -5.0950   -0.3080 ca        1 MOL     -0.316938
     91 C33        -7.0220   -6.3340    0.3370 ca        1 MOL      0.453203
     92 O14        -8.1930   -7.0270    0.2070 oh        1 MOL     -0.555256
     93 H37        -4.0170   -1.3430    0.9330 hn        1 MOL      0.373795
     94 H38        -2.9780   -3.7480    2.3840 h1        1 MOL     -0.047876
     95 H39        -2.4860   -4.7490    0.3210 hc        1 MOL     -0.093920
     96 H40        -3.3570   -3.4510   -0.5790 hc        1 MOL     -0.093920
     97 H41        -3.7100   -6.5030    1.3480 ha        1 MOL      0.089210
     98 H42        -5.6820   -3.5400   -1.0120 ha        1 MOL      0.089210
     99 H43        -5.9210   -7.7640    1.4580 ha        1 MOL      0.136286
    100 H44        -7.7770   -4.6700   -0.8200 ha        1 MOL      0.136286
    101 H45        -8.7670   -6.6460   -0.4620 ho        1 MOL      0.392926
    102 N10        -0.6780   -3.0840    1.9870 n         1 MOL     -0.320873
    103 C34         0.7630   -2.6720    1.8520 c3        1 MOL      0.047168
    104 C35         1.5340   -3.8150    1.2070 c         1 MOL      0.411595
    105 O15         1.3730   -4.9730    1.4110 o         1 MOL     -0.529631
    106 C36         1.4010   -2.4190    3.3040 c3        1 MOL      0.120273
    107 C37         0.6250   -1.3480    4.2230 c3        1 MOL      0.153717
    108 C38         2.8380   -1.9850    3.2510 c3        1 MOL     -0.236899
    109 C39         0.9430   -1.3470    5.7380 c3        1 MOL     -0.326241
    110 H46        -0.9130   -3.8740    2.5670 hn        1 MOL      0.267088
    111 H47         0.7350   -1.7510    1.2760 h1        1 MOL      0.082444
    112 H48         1.2530   -3.3790    3.7930 hc        1 MOL      0.006272
    113 H49        -0.4550   -1.4850    4.1590 hc        1 MOL     -0.002210
    114 H50         0.8270   -0.3690    3.7900 hc        1 MOL     -0.002210
    115 H51         3.4190   -2.7830    2.7850 hc        1 MOL      0.042536
    116 H52         3.1160   -1.0940    2.6760 hc        1 MOL      0.042536
    117 H53         3.2940   -1.9410    4.2350 hc        1 MOL      0.042536
    118 H54         0.4200   -2.1990    6.1730 hc        1 MOL      0.077751
    119 H55         2.0080   -1.2920    5.9460 hc        1 MOL      0.077751
    120 H56         0.5760   -0.3810    6.0980 hc        1 MOL      0.077751
    121 N11         2.3560   -3.4480    0.2260 n         1 MOL     -0.143341
    122 C40         3.3320   -4.2760   -0.5120 c3        1 MOL     -0.059737
    123 C41         4.7930   -3.9270   -0.3070 c         1 MOL      0.490790
    124 O16         5.0520   -2.8800    0.2320 o         1 MOL     -0.436795
    125 C42         2.8470   -4.3450   -1.9890 c3        1 MOL     -0.080704
    126 O17         3.0110   -3.0330   -2.5460 oh        1 MOL     -0.582579
    127 H57         2.3600   -2.4940   -0.1010 hn        1 MOL      0.257614
    128 H58         3.2960   -5.3400   -0.2450 h1        1 MOL      0.053842
    129 H59         1.8690   -4.7890   -2.1650 h1        1 MOL      0.101067
    130 H60         3.5350   -4.9750   -2.5510 h1        1 MOL      0.101067
    131 H61         2.4380   -2.4160   -2.0850 ho        1 MOL      0.355380
    132 N12         5.7360   -4.6720   -0.8630 n         1 MOL     -0.388192
    133 C43         7.1390   -4.5630   -0.5340 c3        1 MOL      0.081018
    134 C44         7.7430   -3.2000   -1.0380 c         1 MOL      0.434818
    135 O18         8.5500   -2.5580   -0.3000 o         1 MOL     -0.521733
    136 C45         7.9920   -5.6820   -1.1660 c3        1 MOL     -0.378111
    137 H62         5.4660   -5.4810   -1.4060 hn        1 MOL      0.267607
    138 H63         7.2940   -4.5540    0.5460 h1        1 MOL      0.107826
    139 H64         7.8890   -6.6060   -0.5960 hc        1 MOL      0.119821
    140 H65         7.9540   -5.8890   -2.2330 hc        1 MOL      0.119821
    141 H66         9.0350   -5.3870   -1.0500 hc        1 MOL      0.119821
    142 N13         7.3980   -2.7130   -2.2350 n         1 MOL     -0.356579
    143 C46         7.7940   -1.4420   -2.7780 c3        1 MOL      0.098291
    144 C47         7.2050   -0.2530   -1.9530 c         1 MOL      0.323630
    145 O19         7.8440    0.7810   -1.9170 o         1 MOL     -0.497170
    146 C48         7.2650   -1.1590   -4.2170 c3        1 MOL     -0.232272
    147 H67         6.8260   -3.3350   -2.7910 hn        1 MOL      0.265616
    148 H68         8.8760   -1.3570   -2.8690 h1        1 MOL      0.092593
    149 H69         6.1880   -1.0690   -4.0250 hc        1 MOL      0.071251
    150 H70         7.6490   -0.2330   -4.6190 hc        1 MOL      0.071251
    151 H71         7.2880   -1.9720   -4.9410 hc        1 MOL      0.071251
    152 N14         6.0640   -0.4350   -1.2480 n         1 MOL      0.051037
    153 C49         5.5830    0.5950   -0.2810 c3        1 MOL     -0.374436
    154 C50         6.3220    0.6050    1.1000 c         1 MOL      0.566699
    155 O20         6.4820    1.6720    1.7240 o         1 MOL     -0.578899
    156 C51         4.0830    0.2130   -0.1790 c3        1 MOL      0.096920
    157 C52         3.3070    0.3060   -1.5080 c3        1 MOL     -0.234564
    158 C53         1.8210   -0.0950   -1.2910 c         1 MOL      0.865456
    159 O21         0.9290    0.7150   -0.9610 o         1 MOL     -0.761094
    160 O22         1.5720   -1.3050   -1.5100 o         1 MOL     -0.761094
    161 H72         5.5830   -1.3230   -1.2700 hn        1 MOL      0.132353
    162 H73         5.6390    1.5730   -0.7360 h1        1 MOL      0.169369
    163 H74         3.6020    0.8670    0.5560 hc        1 MOL      0.032365
    164 H75         3.8440   -0.7670    0.2450 hc        1 MOL      0.032365
    165 H76         3.8060   -0.2400   -2.3070 hc        1 MOL      0.033356
    166 H77         3.2510    1.3540   -1.8260 hc        1 MOL      0.033356
    167 N15         6.7960   -0.6010    1.4650 n         1 MOL     -0.082864
    168 C54         7.5950   -0.7930    2.6460 c3        1 MOL     -0.404740
    169 H78         7.5150   -1.8300    2.9730 h1        1 MOL      0.142923
    170 H79         8.6370   -0.5640    2.4210 h1        1 MOL      0.142923
    171 H80         7.2410   -0.1340    3.4370 h1        1 MOL      0.142923
    172 H81         6.6050   -1.3790    0.8450 hn        1 MOL      0.118151
    173 Ca1        -1.4100   -0.0080   -1.5360 Ca        1 MOL      1.804412
    174 O23        -0.9640   -0.4240   -4.3450 oh        1 MOL     -0.859413
    175 H82        -0.8540   -1.3310   -4.6310 ho        1 MOL      0.410838
    176 H83        -1.2220    0.0570   -5.1340 ho        1 MOL      0.410838
    177 O24        -0.5730   -2.6600   -2.0790 oh        1 MOL     -0.859413
    178 H84        -0.6400   -3.5890   -2.2660 ho        1 MOL      0.410838
    179 H85         0.3610   -2.4530   -2.1580 ho        1 MOL      0.410838
@<TRIPOS>BOND
     1    1    2 1   
     2    1    4 1   
     3    1    5 1   
     4    1    6 1   
     5    2    3 2   
     6    2    7 1   
     7    7    8 1   
     8    7   15 1   
     9    8    9 1   
    10    8   11 1   
    11    8   16 1   
    12    9   10 2   
    13    9   19 1   
    14   11   12 1   
    15   11   17 1   
    16   11   18 1   
    17   12   13 1   
    18   12   14 1   
    19   19   20 1   
    20   19   28 1   
    21   20   21 1   
    22   20   23 1   
    23   20   29 1   
    24   21   22 2   
    25   21   41 1   
    26   23   24 1   
    27   23   30 1   
    28   23   31 1   
    29   24   25 1   
    30   24   32 1   
    31   24   33 1   
    32   25   26 1   
    33   25   34 1   
    34   25   35 1   
    35   26   27 1   
    36   26   36 1   
    37   26   37 1   
    38   27   38 1   
    39   27   39 1   
    40   27   40 1   
    41   41   42 1   
    42   41   49 1   
    43   42   43 1   
    44   42   45 1   
    45   42   50 1   
    46   43   44 2   
    47   43   53 1   
    48   45   46 1   
    49   45   51 1   
    50   45   52 1   
    51   46   47 1   
    52   46   48 1   
    53   53   54 1   
    54   53   57 1   
    55   54   55 1   
    56   54   58 1   
    57   54   59 1   
    58   55   56 2   
    59   55   60 1   
    60   60   61 1   
    61   60   68 1   
    62   61   62 1   
    63   61   64 1   
    64   61   69 1   
    65   62   63 2   
    66   62   74 1   
    67   64   65 1   
    68   64   70 1   
    69   64   71 1   
    70   65   66 1   
    71   65   67 2   
    72   66   72 1   
    73   66   73 1   
    74   74   75 1   
    75   74   78 1   
    76   75   76 1   
    77   75   79 1   
    78   75   80 1   
    79   76   77 2   
    80   76   81 1   
    81   81   82 1   
    82   81   93 1   
    83   82   83 1   
    84   82   85 1   
    85   82   94 1   
    86   83   84 2   
    87   83  102 1   
    88   85   86 1   
    89   85   95 1   
    90   85   96 1   
    91   86   87 ar  
    92   86   88 ar  
    93   87   89 ar  
    94   87   97 1   
    95   88   90 ar  
    96   88   98 1   
    97   89   91 ar  
    98   89   99 1   
    99   90   91 ar  
   100   90  100 1   
   101   91   92 1   
   102   92  101 1   
   103  102  103 1   
   104  102  110 1   
   105  103  104 1   
   106  103  106 1   
   107  103  111 1   
   108  104  105 2   
   109  104  121 1   
   110  106  107 1   
   111  106  108 1   
   112  106  112 1   
   113  107  109 1   
   114  107  113 1   
   115  107  114 1   
   116  108  115 1   
   117  108  116 1   
   118  108  117 1   
   119  109  118 1   
   120  109  119 1   
   121  109  120 1   
   122  121  122 1   
   123  121  127 1   
   124  122  123 1   
   125  122  125 1   
   126  122  128 1   
   127  123  124 2   
   128  123  132 1   
   129  125  126 1   
   130  125  129 1   
   131  125  130 1   
   132  126  131 1   
   133  132  133 1   
   134  132  137 1   
   135  133  134 1   
   136  133  136 1   
   137  133  138 1   
   138  134  135 2   
   139  134  142 1   
   140  136  139 1   
   141  136  140 1   
   142  136  141 1   
   143  142  143 1   
   144  142  147 1   
   145  143  144 1   
   146  143  146 1   
   147  143  148 1   
   148  144  145 2   
   149  144  152 1   
   150  146  149 1   
   151  146  150 1   
   152  146  151 1   
   153  152  153 1   
   154  152  161 1   
   155  153  154 1   
   156  153  156 1   
   157  153  162 1   
   158  154  155 2   
   159  154  167 1   
   160  156  157 1   
   161  156  163 1   
   162  156  164 1   
   163  157  158 1   
   164  157  165 1   
   165  157  166 1   
   166  158  159 1   
   167  158  160 1   
   168  167  168 1   
   169  167  172 1   
   170  168  169 1   
   171  168  170 1   
   172  168  171 1   
   173  174  175 1   
   174  174  176 1   
   175  177  178 1   
   176  177  179 1   
@<TRIPOS>SUBSTRUCTURE
     1 MOL         1 TEMP              0 ****  ****    0 ROOT
