@<TRIPOS>MOLECULE
MOL
  189   185     1     0     0
SMALL
resp


@<TRIPOS>ATOM
      1 C1          0.5910    3.4320   -5.1080 c3        1 MOL     -0.464456
      2 C2          0.7710    2.8510   -3.7270 c         1 MOL      0.534494
      3 O1         -0.0340    2.9600   -2.7840 o         1 MOL     -0.527922
      4 H1          1.5630    3.7160   -5.5120 hc        1 MOL      0.126536
      5 H2          0.1310    2.6880   -5.7580 hc        1 MOL      0.126536
      6 H3         -0.0490    4.3120   -5.0520 hc        1 MOL      0.126536
      7 N1          1.9160    2.2060   -3.5390 n         1 MOL     -0.560856
      8 C3          2.4970    1.7280   -2.2790 c3        1 MOL      0.202771
      9 C4          2.9570    2.9740   -1.4870 c         1 MOL      0.568690
     10 O2          4.1440    3.2170   -1.2550 o         1 MOL     -0.519198
     11 C5          3.6300    0.7640   -2.4920 c3        1 MOL     -0.185551
     12 C6          4.3330    0.0460   -1.2530 c         1 MOL      0.743273
     13 O3          5.3950   -0.5440   -1.5960 o         1 MOL     -0.635174
     14 O4          3.8400    0.1290   -0.1270 o         1 MOL     -0.635174
     15 H4          2.3720    1.9660   -4.4090 hn        1 MOL      0.328390
     16 H5          1.6780    1.2920   -1.7090 h1        1 MOL     -0.023915
     17 H6          4.4190    1.2580   -3.0470 hc        1 MOL      0.020529
     18 H7          3.2500   -0.0570   -3.0970 hc        1 MOL      0.020529
     19 N2          2.0080    3.7240   -0.9540 n         1 MOL     -0.587721
     20 C7          2.3330    5.0600   -0.3680 c3        1 MOL     -0.049115
     21 C8          2.9150    5.0560    1.0180 c         1 MOL      0.550405
     22 O5          3.3540    6.1290    1.4820 o         1 MOL     -0.586622
     23 C9          1.1640    6.0630   -0.3630 c3        1 MOL     -0.227629
     24 C10         0.8100    6.4260   -1.7930 c3        1 MOL      0.547899
     25 C11        -0.0680    7.6590   -1.7570 c3        1 MOL     -0.410145
     26 C12        -0.6100    7.8110   -3.2700 c3        1 MOL      0.050946
     27 N3          0.4810    8.0600   -4.1830 n4        1 MOL     -0.434584
     28 H8          1.0570    3.4210   -1.0520 hn        1 MOL      0.415726
     29 H9          3.1070    5.4090   -1.0550 h1        1 MOL      0.107149
     30 H10         1.4830    7.0300    0.0360 hc        1 MOL      0.071070
     31 H11         0.3350    5.6820    0.2330 hc        1 MOL      0.071070
     32 H12         0.3210    5.6090   -2.3240 hc        1 MOL     -0.108123
     33 H13         1.7550    6.7530   -2.2360 hc        1 MOL     -0.108123
     34 H14         0.5420    8.5060   -1.4480 hc        1 MOL      0.127755
     35 H15        -0.9100    7.4070   -1.1170 hc        1 MOL      0.127755
     36 H16        -1.2640    8.6690   -3.4060 hx        1 MOL      0.093650
     37 H17        -1.2050    6.9450   -3.5250 hx        1 MOL      0.093650
     38 H18         1.1640    7.3210   -4.0780 hn        1 MOL      0.346489
     39 H19         0.1150    8.1760   -5.1120 hn        1 MOL      0.346489
     40 H20         0.9200    8.9440   -3.9430 hn        1 MOL      0.346489
     41 N4          3.1430    3.8940    1.6570 n         1 MOL     -0.390528
     42 C13         4.0320    3.8300    2.8280 c3        1 MOL      0.222832
     43 C14         5.3380    3.0640    2.5410 c         1 MOL      0.375798
     44 O6          6.3910    3.3790    3.0300 o         1 MOL     -0.546532
     45 C15         3.2200    3.1790    3.9620 c3        1 MOL     -0.301503
     46 C16         2.3470    1.9750    3.5960 c         1 MOL      0.790224
     47 O7          1.4870    1.5360    4.4070 o         1 MOL     -0.719264
     48 O8          2.5410    1.2880    2.5350 o         1 MOL     -0.719264
     49 H21         2.8140    3.0320    1.2560 hn        1 MOL      0.274332
     50 H22         4.3250    4.8040    3.2120 h1        1 MOL      0.059216
     51 H23         2.4300    3.8870    4.2200 hc        1 MOL      0.068650
     52 H24         3.8370    3.0030    4.8480 hc        1 MOL      0.068650
     53 N5          5.3830    2.0670    1.6030 n         1 MOL      0.116722
     54 C17         6.5340    1.4530    1.0300 c3        1 MOL     -0.113810
     55 C18         6.9010    0.0890    1.6450 c         1 MOL      0.489444
     56 O9          7.4390    0.1590    2.7390 o         1 MOL     -0.513894
     57 H25         4.5280    1.8180    1.1230 hn        1 MOL     -0.093733
     58 H26         7.3960    2.0980    1.2040 h1        1 MOL      0.048932
     59 H27         6.4560    1.4650   -0.0610 h1        1 MOL      0.048932
     60 N6          6.4180   -1.0060    1.0530 n         1 MOL     -0.382971
     61 C19         6.6900   -2.3590    1.5370 c3        1 MOL      0.071134
     62 C20         6.6550   -3.3770    0.4430 c         1 MOL      0.506967
     63 O10         6.8970   -4.5190    0.7100 o         1 MOL     -0.570742
     64 C21         5.7960   -2.7590    2.7270 c3        1 MOL     -0.115395
     65 C22         4.3010   -2.4580    2.4010 c         1 MOL      0.654945
     66 O11         3.5410   -1.9260    3.2480 o         1 MOL     -0.677473
     67 O12         3.9120   -2.6020    1.1920 o         1 MOL     -0.677473
     68 H28         5.8380   -0.9510    0.2260 hn        1 MOL      0.243840
     69 H29         7.6820   -2.2700    1.9810 h1        1 MOL      0.052167
     70 H30         5.9880   -2.1800    3.6330 hc        1 MOL      0.041818
     71 H31         5.9590   -3.8020    2.9790 hc        1 MOL      0.041818
     72 N7          6.5290   -2.9650   -0.7460 n         1 MOL     -0.397585
     73 C23         6.3320   -3.9220   -1.8830 c3        1 MOL      0.104732
     74 C24         4.9040   -4.3940   -2.1860 c         1 MOL      0.311181
     75 O13         4.6710   -5.3960   -2.8960 o         1 MOL     -0.533035
     76 H32         6.4190   -1.9710   -0.8380 hn        1 MOL      0.225449
     77 H33         6.9790   -4.8120   -1.8910 h1        1 MOL      0.067069
     78 H34         6.7040   -3.5630   -2.8430 h1        1 MOL      0.067069
     79 N8          3.8570   -3.8530   -1.4790 n         1 MOL     -0.034996
     80 C25         2.4680   -4.4300   -1.6210 c3        1 MOL     -0.216613
     81 C26         1.3600   -3.3620   -1.4680 c         1 MOL      0.505812
     82 O14         1.5760   -2.3070   -0.8680 o         1 MOL     -0.591336
     83 C27         2.2040   -5.4820   -0.5070 c3        1 MOL      0.519837
     84 C28         2.9970   -6.8290   -0.7090 c3        1 MOL     -0.535381
     85 O15         2.5740   -4.9590    0.8000 oh        1 MOL     -0.669353
     86 H35         4.1090   -3.1250   -0.8270 hn        1 MOL      0.087108
     87 H36         2.3690   -5.0260   -2.5260 h1        1 MOL      0.104595
     88 H37         1.1410   -5.7030   -0.4900 h1        1 MOL     -0.045668
     89 H38         3.1240   -4.1690    0.7730 ho        1 MOL      0.400359
     90 H39         4.0560   -6.6040   -0.5580 hc        1 MOL      0.143225
     91 H40         2.6100   -7.4940    0.0620 hc        1 MOL      0.143225
     92 H41         2.8750   -7.2280   -1.7110 hc        1 MOL      0.143225
     93 N9          0.2520   -3.6190   -2.1600 n         1 MOL     -0.335926
     94 C29        -0.9400   -2.7810   -2.2790 c3        1 MOL      0.143629
     95 C30        -2.1130   -3.3190   -1.4970 c         1 MOL      0.263230
     96 O16        -2.7960   -4.3080   -1.9040 o         1 MOL     -0.510129
     97 C31        -1.3140   -2.6330   -3.7930 c3        1 MOL     -0.021981
     98 C32        -0.2200   -1.9260   -4.6680 c3        1 MOL     -0.073340
     99 C33        -2.5810   -1.6850   -4.0800 c3        1 MOL     -0.161393
    100 C34         0.1620   -0.5270   -4.3750 c3        1 MOL      0.083225
    101 H42         0.2620   -4.4840   -2.6720 hn        1 MOL      0.253609
    102 H43        -0.8130   -1.7740   -1.8870 h1        1 MOL      0.035589
    103 H44        -1.4910   -3.6330   -4.1740 hc        1 MOL      0.049539
    104 H45        -0.5730   -2.0070   -5.7010 hc        1 MOL     -0.000123
    105 H46         0.6940   -2.5130   -4.5870 hc        1 MOL     -0.000123
    106 H47        -2.6770   -1.4150   -5.1280 hc        1 MOL      0.037888
    107 H48        -3.5190   -2.1150   -3.7220 hc        1 MOL      0.037888
    108 H49        -2.4770   -0.7200   -3.5750 hc        1 MOL      0.037888
    109 H50        -0.6080    0.2410   -4.4600 hc        1 MOL      0.017093
    110 H51         0.7230   -0.5050   -3.4400 hc        1 MOL      0.017093
    111 H52         0.8860   -0.2700   -5.1410 hc        1 MOL      0.017093
    112 N10        -2.4380   -2.6910   -0.3730 n         1 MOL     -0.041618
    113 C35        -3.5930   -3.1420    0.4670 c3        1 MOL     -0.076528
    114 C36        -4.9040   -2.7470   -0.1640 c         1 MOL      0.262855
    115 O17        -4.8540   -2.0730   -1.1940 o         1 MOL     -0.263126
    116 C37        -3.5860   -2.4730    1.8660 c3        1 MOL      0.010361
    117 C38        -2.4480   -2.7540    2.8000 c3        1 MOL     -0.125759
    118 O18        -3.7710   -1.0590    1.6540 oh        1 MOL     -0.435359
    119 H53        -1.8640   -1.9520    0.0050 hn        1 MOL      0.102952
    120 H54        -3.5770   -4.2220    0.5910 h1        1 MOL      0.110370
    121 H55        -4.4610   -2.8020    2.4390 h1        1 MOL      0.085423
    122 H56        -2.9400   -0.6690    1.9350 ho        1 MOL      0.392379
    123 H57        -2.0230   -3.7470    2.6700 hc        1 MOL      0.052110
    124 H58        -1.7450   -1.9150    2.8350 hc        1 MOL      0.052110
    125 H59        -2.8890   -2.7810    3.8020 hc        1 MOL      0.052110
    126 N11        -6.0120   -2.9720    0.4710 n         1 MOL     -0.172827
    127 C39        -7.3070   -2.4560    0.0720 c3        1 MOL     -0.110060
    128 C40        -7.3810   -0.9480    0.0500 c         1 MOL      0.378994
    129 O19        -7.9040   -0.3730   -0.8860 o         1 MOL     -0.470207
    130 C41        -8.3550   -2.8660    1.0930 c3        1 MOL      0.208550
    131 C42        -8.6900   -4.3520    1.1130 c3        1 MOL     -0.321687
    132 O20        -8.0650   -2.4310    2.4140 oh        1 MOL     -0.624161
    133 H60        -5.9770   -3.4470    1.3510 hn        1 MOL      0.228809
    134 H61        -7.7030   -2.9400   -0.8140 h1        1 MOL      0.144439
    135 H62        -9.2790   -2.3380    0.8450 h1        1 MOL      0.056546
    136 H63        -8.8800   -2.5540    2.9090 ho        1 MOL      0.414053
    137 H64        -7.7490   -4.8570    1.3430 hc        1 MOL      0.095379
    138 H65        -9.4020   -4.6020    1.9060 hc        1 MOL      0.095379
    139 H66        -9.0050   -4.8220    0.1800 hc        1 MOL      0.095379
    140 N12        -6.7650   -0.2170    1.0130 n         1 MOL     -0.200072
    141 C43        -6.8020    1.2400    1.0600 c3        1 MOL     -0.051631
    142 C44        -6.1220    1.7620   -0.1800 c         1 MOL      0.452256
    143 O21        -6.6260    2.6460   -0.8050 o         1 MOL     -0.504812
    144 C45        -6.1840    1.7470    2.3330 c3        1 MOL     -0.053950
    145 C46        -6.9660    1.3770    3.5790 c3        1 MOL      0.027136
    146 C47        -6.1430    1.5780    4.8170 c3        1 MOL     -0.004114
    147 C48        -5.8490    3.0770    5.0540 c3        1 MOL      0.100127
    148 N13        -5.1390    3.1660    6.3930 n4        1 MOL     -0.481530
    149 H67        -6.2810   -0.6910    1.7650 hn        1 MOL      0.252684
    150 H68        -7.8440    1.5480    1.1410 h1        1 MOL      0.086624
    151 H69        -6.1270    2.8330    2.2370 hc        1 MOL      0.033791
    152 H70        -5.1630    1.3640    2.3330 hc        1 MOL      0.033791
    153 H71        -7.2830    0.3260    3.5090 hc        1 MOL      0.014070
    154 H72        -7.9000    1.9370    3.6390 hc        1 MOL      0.014070
    155 H73        -5.2370    0.9640    4.7760 hc        1 MOL      0.009535
    156 H74        -6.7660    1.2360    5.6380 hc        1 MOL      0.009535
    157 H75        -6.7850    3.6420    5.0490 hx        1 MOL      0.079641
    158 H76        -5.2330    3.4240    4.2270 hx        1 MOL      0.079641
    159 H77        -4.2860    2.6300    6.3590 hn        1 MOL      0.360371
    160 H78        -4.7960    4.0930    6.6050 hn        1 MOL      0.360371
    161 H79        -5.7870    2.7830    7.0800 hn        1 MOL      0.360371
    162 N14        -4.8990    1.2140   -0.3690 n         1 MOL     -0.082444
    163 C49        -3.9920    1.5860   -1.4900 c3        1 MOL     -0.120795
    164 C50        -4.4980    1.1500   -2.8650 c         1 MOL      0.434847
    165 O22        -4.2890    1.8790   -3.8340 o         1 MOL     -0.551707
    166 C51        -2.6060    0.9380   -1.2110 c3        1 MOL      0.083442
    167 C52        -1.9280    1.5020    0.0800 c3        1 MOL     -0.287840
    168 C53        -0.6560    0.7550    0.3670 c         1 MOL      0.708879
    169 O23        -0.7360   -0.5210    0.5120 o         1 MOL     -0.702055
    170 O24         0.4420    1.3420    0.5150 o         1 MOL     -0.702055
    171 H80        -4.6940    0.4220    0.2240 hn        1 MOL     -0.149952
    172 H81        -3.7860    2.6500   -1.5470 h1        1 MOL      0.104708
    173 H82        -1.8190    1.2600   -1.9020 hc        1 MOL      0.071629
    174 H83        -2.6330   -0.1560   -1.1580 hc        1 MOL      0.071629
    175 H84        -2.6190    1.4170    0.9110 hc        1 MOL      0.059373
    176 H85        -1.6110    2.5330   -0.0460 hc        1 MOL      0.059373
    177 N15        -5.3370    0.0510   -2.9950 n         1 MOL     -0.026356
    178 C54        -6.1360   -0.3140   -4.1800 c3        1 MOL     -0.226632
    179 H86        -7.0860   -0.7420   -3.8590 h1        1 MOL      0.086577
    180 H87        -6.3240    0.5760   -4.7810 h1        1 MOL      0.086577
    181 H88        -5.5900   -1.0460   -4.7750 h1        1 MOL      0.086577
    182 H89        -5.3450   -0.6110   -2.2350 hn        1 MOL      0.094388
    183 Ca1         1.7800   -0.7950    1.4040 Ca        1 MOL      1.780630
    184 O25         0.2210   -0.6420    4.0070 oh        1 MOL     -0.849421
    185 H90        -0.0660   -0.9460    4.8640 ho        1 MOL      0.392814
    186 H91         0.6800    0.1860    4.1900 ho        1 MOL      0.392814
    187 O26         0.9470   -3.0750    2.4540 oh        1 MOL     -0.849421
    188 H92         0.4460   -3.3890    3.2130 ho        1 MOL      0.392814
    189 H93         1.3550   -3.8590    2.0890 ho        1 MOL      0.392814
@<TRIPOS>BOND
     1    1    2 1   
     2    1    4 1   
     3    1    5 1   
     4    1    6 1   
     5    2    3 2   
     6    2    7 1   
     7    7    8 1   
     8    7   15 1   
     9    8    9 1   
    10    8   11 1   
    11    8   16 1   
    12    9   10 2   
    13    9   19 1   
    14   11   12 1   
    15   11   17 1   
    16   11   18 1   
    17   12   13 1   
    18   12   14 1   
    19   19   20 1   
    20   19   28 1   
    21   20   21 1   
    22   20   23 1   
    23   20   29 1   
    24   21   22 2   
    25   21   41 1   
    26   23   24 1   
    27   23   30 1   
    28   23   31 1   
    29   24   25 1   
    30   24   32 1   
    31   24   33 1   
    32   25   26 1   
    33   25   34 1   
    34   25   35 1   
    35   26   27 1   
    36   26   36 1   
    37   26   37 1   
    38   27   38 1   
    39   27   39 1   
    40   27   40 1   
    41   41   42 1   
    42   41   49 1   
    43   42   43 1   
    44   42   45 1   
    45   42   50 1   
    46   43   44 2   
    47   43   53 1   
    48   45   46 1   
    49   45   51 1   
    50   45   52 1   
    51   46   47 1   
    52   46   48 1   
    53   53   54 1   
    54   53   57 1   
    55   54   55 1   
    56   54   58 1   
    57   54   59 1   
    58   55   56 2   
    59   55   60 1   
    60   60   61 1   
    61   60   68 1   
    62   61   62 1   
    63   61   64 1   
    64   61   69 1   
    65   62   63 2   
    66   62   72 1   
    67   64   65 1   
    68   64   70 1   
    69   64   71 1   
    70   65   66 1   
    71   65   67 1   
    72   72   73 1   
    73   72   76 1   
    74   73   74 1   
    75   73   77 1   
    76   73   78 1   
    77   74   75 2   
    78   74   79 1   
    79   79   80 1   
    80   79   86 1   
    81   80   81 1   
    82   80   83 1   
    83   80   87 1   
    84   81   82 2   
    85   81   93 1   
    86   83   84 1   
    87   83   85 1   
    88   83   88 1   
    89   84   90 1   
    90   84   91 1   
    91   84   92 1   
    92   85   89 1   
    93   93   94 1   
    94   93  101 1   
    95   94   95 1   
    96   94   97 1   
    97   94  102 1   
    98   95   96 2   
    99   95  112 1   
   100   97   98 1   
   101   97   99 1   
   102   97  103 1   
   103   98  100 1   
   104   98  104 1   
   105   98  105 1   
   106   99  106 1   
   107   99  107 1   
   108   99  108 1   
   109  100  109 1   
   110  100  110 1   
   111  100  111 1   
   112  112  113 1   
   113  112  119 1   
   114  113  114 1   
   115  113  116 1   
   116  113  120 1   
   117  114  115 2   
   118  114  126 1   
   119  116  117 1   
   120  116  118 1   
   121  116  121 1   
   122  117  123 1   
   123  117  124 1   
   124  117  125 1   
   125  118  122 1   
   126  126  127 1   
   127  126  133 1   
   128  127  128 1   
   129  127  130 1   
   130  127  134 1   
   131  128  129 2   
   132  128  140 1   
   133  130  131 1   
   134  130  132 1   
   135  130  135 1   
   136  131  137 1   
   137  131  138 1   
   138  131  139 1   
   139  132  136 1   
   140  140  141 1   
   141  140  149 1   
   142  141  142 1   
   143  141  144 1   
   144  141  150 1   
   145  142  143 2   
   146  142  162 1   
   147  144  145 1   
   148  144  151 1   
   149  144  152 1   
   150  145  146 1   
   151  145  153 1   
   152  145  154 1   
   153  146  147 1   
   154  146  155 1   
   155  146  156 1   
   156  147  148 1   
   157  147  157 1   
   158  147  158 1   
   159  148  159 1   
   160  148  160 1   
   161  148  161 1   
   162  162  163 1   
   163  162  171 1   
   164  163  164 1   
   165  163  166 1   
   166  163  172 1   
   167  164  165 2   
   168  164  177 1   
   169  166  167 1   
   170  166  173 1   
   171  166  174 1   
   172  167  168 1   
   173  167  175 1   
   174  167  176 1   
   175  168  169 1   
   176  168  170 1   
   177  177  178 1   
   178  177  182 1   
   179  178  179 1   
   180  178  180 1   
   181  178  181 1   
   182  184  185 1   
   183  184  186 1   
   184  187  188 1   
   185  187  189 1   
@<TRIPOS>SUBSTRUCTURE
     1 MOL         1 TEMP              0 ****  ****    0 ROOT
