@<TRIPOS>MOLECULE
MOL
  189   185     1     0     0
SMALL
resp


@<TRIPOS>ATOM
      1 C1          0.5620   -3.8530    6.1820 c3        1 MOL     -0.414505
      2 C2          1.2350   -3.2190    4.8880 c         1 MOL      0.688365
      3 O1          1.3020   -2.0110    4.7050 o         1 MOL     -0.574918
      4 H1         -0.3660   -3.3250    6.4030 hc        1 MOL      0.109144
      5 H2          0.3450   -4.9060    6.0010 hc        1 MOL      0.109144
      6 H3          1.2430   -3.7620    7.0280 hc        1 MOL      0.109144
      7 N1          1.7030   -4.1160    3.9770 n         1 MOL     -0.570560
      8 C3          2.3520   -3.6410    2.7630 c3        1 MOL      0.161198
      9 C4          2.4380   -4.6990    1.7130 c         1 MOL      0.428321
     10 O2          2.9550   -5.8260    1.9720 o         1 MOL     -0.564191
     11 C5          3.7920   -3.1530    3.0800 c3        1 MOL     -0.135763
     12 C6          4.6450   -2.7460    1.8110 c         1 MOL      0.531012
     13 O3          5.7410   -3.3410    1.5610 o         1 MOL     -0.602219
     14 O4          4.2340   -1.7900    1.1990 o         1 MOL     -0.602219
     15 H4          1.5630   -5.1030    4.1470 hn        1 MOL      0.313107
     16 H5          1.6830   -2.8530    2.4030 h1        1 MOL      0.027743
     17 H6          4.3460   -3.9490    3.5830 hc        1 MOL      0.039114
     18 H7          3.7540   -2.2620    3.7000 hc        1 MOL      0.039114
     19 N2          2.3000   -4.3130    0.4480 n         1 MOL     -0.046748
     20 C7          2.2720   -5.2050   -0.7700 c3        1 MOL     -0.262825
     21 C8          3.2730   -4.7770   -1.9070 c         1 MOL      0.590850
     22 O5          3.4950   -5.5450   -2.8310 o         1 MOL     -0.566171
     23 C9          0.8760   -5.4270   -1.3920 c3        1 MOL      0.284949
     24 C10         0.1350   -4.1640   -1.7750 c3        1 MOL      0.045854
     25 C11         0.0980   -6.2740   -0.3540 c3        1 MOL     -0.233888
     26 C12        -1.2920   -4.5160   -2.3450 c3        1 MOL     -0.435069
     27 H8          2.0620   -3.3440    0.3120 hn        1 MOL     -0.003390
     28 H9          2.5370   -6.2200   -0.4670 h1        1 MOL      0.124085
     29 H10         0.9780   -6.0700   -2.2710 hc        1 MOL     -0.025580
     30 H11         0.7470   -3.5150   -2.3860 hc        1 MOL      0.034453
     31 H12        -0.0870   -3.5290   -0.9240 hc        1 MOL      0.034453
     32 H13         0.0360   -5.8090    0.6270 hc        1 MOL      0.033132
     33 H14        -0.9090   -6.4570   -0.7310 hc        1 MOL      0.033132
     34 H15         0.5520   -7.2590   -0.3070 hc        1 MOL      0.033132
     35 H16        -1.9310   -4.7230   -1.4970 hc        1 MOL      0.109045
     36 H17        -1.7130   -3.6200   -2.8100 hc        1 MOL      0.109045
     37 H18        -1.1720   -5.2970   -3.0960 hc        1 MOL      0.109045
     38 N3          4.0690   -3.6580   -1.7710 n         1 MOL     -0.521320
     39 C13         4.8220   -3.1300   -2.9150 c3        1 MOL      0.104805
     40 C14         6.0740   -2.3260   -2.4310 c         1 MOL      0.310379
     41 O6          6.8870   -1.9060   -3.2560 o         1 MOL     -0.548837
     42 C15         3.8850   -2.2420   -3.6470 c3        1 MOL     -0.275628
     43 C16         3.1180   -1.1430   -2.8820 c         1 MOL      0.741607
     44 O7          3.5860   -0.8190   -1.7130 o         1 MOL     -0.707949
     45 O8          2.1750   -0.4410   -3.3890 o         1 MOL     -0.707949
     46 H19         3.8080   -2.9840   -1.0600 hn        1 MOL      0.362375
     47 H20         5.1150   -3.9300   -3.5890 h1        1 MOL      0.106957
     48 H21         3.1690   -2.9090   -4.1380 hc        1 MOL      0.067796
     49 H22         4.5090   -1.7590   -4.4010 hc        1 MOL      0.067796
     50 N4          6.3670   -2.3790   -1.1510 n         1 MOL     -0.039479
     51 C17         7.5810   -1.7680   -0.6590 c3        1 MOL     -0.183867
     52 C18         7.6410   -0.2650   -0.7250 c         1 MOL      0.597964
     53 O9          8.4980    0.3690   -0.1260 o         1 MOL     -0.626498
     54 H23         5.8660   -2.9920   -0.5270 hn        1 MOL      0.130472
     55 H24         8.4440   -2.0520   -1.2600 h1        1 MOL      0.078686
     56 H25         7.7770   -2.0450    0.3780 h1        1 MOL      0.078686
     57 N5          6.5680    0.4280   -1.1770 n         1 MOL     -0.385307
     58 C19         6.7240    1.8240   -1.7310 c3        1 MOL      0.117342
     59 C20         6.9050    2.8760   -0.6000 c         1 MOL      0.429670
     60 O10         7.4860    3.9380   -0.9530 o         1 MOL     -0.585252
     61 C21         5.6170    2.3210   -2.7020 c3        1 MOL     -0.435285
     62 C22         4.2040    2.3050   -2.0630 c         1 MOL      0.853892
     63 O11         4.0680    1.9080   -0.9020 o         1 MOL     -0.699747
     64 O12         3.2470    2.7230   -2.7890 o         1 MOL     -0.699747
     65 H26         5.6940   -0.0710   -1.2930 hn        1 MOL      0.290316
     66 H27         7.6100    1.8360   -2.3750 h1        1 MOL      0.060895
     67 H28         5.5530    1.5460   -3.4670 hc        1 MOL      0.122505
     68 H29         5.8370    3.2750   -3.1760 hc        1 MOL      0.122505
     69 N6          6.5630    2.5750    0.6380 n         1 MOL     -0.126187
     70 C23         6.4760    3.6290    1.6310 c3        1 MOL     -0.240379
     71 C24         5.2330    4.5120    1.5110 c         1 MOL      0.593115
     72 O13         5.1300    5.5090    2.1740 o         1 MOL     -0.607517
     73 H30         6.3170    1.6160    0.8530 hn        1 MOL      0.234835
     74 H31         7.3690    4.2690    1.6150 h1        1 MOL      0.093564
     75 H32         6.4480    3.2630    2.6550 h1        1 MOL      0.093564
     76 N7          4.1790    3.9990    0.8680 n         1 MOL     -0.206880
     77 C25         2.7960    4.6060    0.9570 c3        1 MOL     -0.013071
     78 C26         1.8480    3.5370    1.6010 c         1 MOL      0.421452
     79 O14         2.0820    2.3300    1.6410 o         1 MOL     -0.498577
     80 C27         2.3140    5.1620   -0.3100 c3        1 MOL      0.207984
     81 C28         3.1250    6.1830   -1.0850 c3        1 MOL     -0.323586
     82 C29         2.2970    6.7450   -2.2210 c         1 MOL      0.630893
     83 N8          2.2430    5.9550   -3.2700 n         1 MOL     -0.686341
     84 O15         1.7800    7.8930   -2.2100 o         1 MOL     -0.602033
     85 H33         4.2970    3.2170    0.2380 hn        1 MOL      0.055228
     86 H34         2.9540    5.4740    1.6130 h1        1 MOL      0.061466
     87 H35         1.4320    5.7710   -0.0990 hc        1 MOL     -0.019865
     88 H36         1.9580    4.4380   -1.0310 hc        1 MOL     -0.019865
     89 H37         3.9650    5.7000   -1.5700 hc        1 MOL      0.086750
     90 H38         3.5840    6.8960   -0.3950 hc        1 MOL      0.086750
     91 H39         2.6660    5.0440   -3.2320 hn        1 MOL      0.330955
     92 H40         1.7780    6.2490   -4.1250 hn        1 MOL      0.330955
     93 N9          0.6860    4.0280    2.1120 n         1 MOL     -0.406741
     94 C30        -0.4900    3.1330    2.2190 c3        1 MOL      0.071752
     95 C31        -1.5040    3.3190    1.0780 c         1 MOL      0.379865
     96 O16        -2.1780    4.3240    0.9900 o         1 MOL     -0.568908
     97 C32        -1.1560    3.2280    3.5880 c3        1 MOL      0.356420
     98 C33        -2.2610    2.2260    3.9150 c3        1 MOL     -0.267776
     99 C34        -0.1650    3.1790    4.8560 c3        1 MOL     -0.267776
    100 H41         0.5900    5.0220    2.2350 hn        1 MOL      0.261771
    101 H42        -0.1870    2.0880    2.1200 h1        1 MOL      0.028835
    102 H43        -1.6740    4.1850    3.6040 hc        1 MOL     -0.067813
    103 H44        -1.8330    1.2560    4.1880 hc        1 MOL      0.045124
    104 H45        -2.8410    2.6360    4.7430 hc        1 MOL      0.045124
    105 H46        -2.9820    2.0120    3.1230 hc        1 MOL      0.045124
    106 H47        -0.7610    3.2920    5.7640 hc        1 MOL      0.045124
    107 H48         0.3240    2.2080    4.9510 hc        1 MOL      0.045124
    108 H49         0.5850    3.9660    4.8190 hc        1 MOL      0.045124
    109 N10        -1.5900    2.3580    0.2510 n         1 MOL     -0.186874
    110 C35        -2.6980    2.2480   -0.7060 c3        1 MOL     -0.022128
    111 C36        -4.0360    1.8880    0.0010 c         1 MOL      0.408559
    112 O17        -3.9890    1.3410    1.0820 o         1 MOL     -0.313894
    113 C37        -2.2400    1.0840   -1.5720 c3        1 MOL     -0.105160
    114 C38        -3.0200    0.8920   -2.8550 c         1 MOL      0.605612
    115 N11        -2.3400    0.8940   -3.9430 n         1 MOL     -0.750314
    116 O18        -4.2620    0.7910   -2.9230 o         1 MOL     -0.570649
    117 H50        -1.0250    1.5470    0.4560 hn        1 MOL      0.263236
    118 H51        -2.8630    3.0970   -1.3560 h1        1 MOL      0.087905
    119 H52        -2.1650    0.1020   -1.0990 hc        1 MOL      0.053977
    120 H53        -1.2450    1.3500   -1.9440 hc        1 MOL      0.053977
    121 H54        -1.3360    0.9560   -3.8960 hn        1 MOL      0.394214
    122 H55        -2.7990    0.8360   -4.8380 hn        1 MOL      0.394214
    123 N12        -5.1800    2.2250   -0.5630 n         1 MOL     -0.513173
    124 C39        -6.5010    1.7120   -0.1260 c3        1 MOL      0.251108
    125 C40        -6.6020    0.1890   -0.0150 c         1 MOL      0.461136
    126 O19        -7.3150   -0.2770    0.8350 o         1 MOL     -0.529376
    127 C41        -7.5220    2.2320   -1.1070 c3        1 MOL     -0.147378
    128 C42        -8.9760    1.9890   -0.8320 ca        1 MOL     -0.057803
    129 C43        -9.5370    2.5440    0.3480 ca        1 MOL     -0.014284
    130 C44        -9.7710    1.1810   -1.6330 ca        1 MOL     -0.014284
    131 C45       -10.9070    2.4040    0.6210 ca        1 MOL     -0.418837
    132 C46       -11.1520    1.0520   -1.3480 ca        1 MOL     -0.418837
    133 C47       -11.7660    1.6150   -0.2020 ca        1 MOL      0.483183
    134 O20       -13.0980    1.4090   -0.0120 oh        1 MOL     -0.533937
    135 H56        -5.0140    2.4610   -1.5370 hn        1 MOL      0.268914
    136 H57        -6.7740    2.1870    0.8170 h1        1 MOL      0.036088
    137 H58        -7.1960    1.8880   -2.0850 hc        1 MOL      0.059690
    138 H59        -7.3960    3.3220   -1.1000 hc        1 MOL      0.059690
    139 H60        -9.0300    3.1960    1.0500 ha        1 MOL      0.121519
    140 H61        -9.4220    0.6110   -2.4830 ha        1 MOL      0.121519
    141 H62       -11.3430    2.8180    1.5150 ha        1 MOL      0.164620
    142 H63       -11.7100    0.3320   -1.9280 ha        1 MOL      0.164620
    143 H64       -13.4530    0.9280   -0.7640 ho        1 MOL      0.361907
    144 N13        -5.8670   -0.5700   -0.8570 n         1 MOL     -0.250061
    145 C48        -5.8450   -2.0670   -0.8530 c3        1 MOL     -0.205088
    146 C49        -5.1130   -2.6760    0.3210 c         1 MOL      0.387008
    147 O21        -5.2260   -3.8990    0.5560 o         1 MOL     -0.523387
    148 C50        -5.2940   -2.5280   -2.2400 c3        1 MOL      0.268450
    149 C51        -6.1490   -2.3370   -3.5480 c3        1 MOL     -0.327833
    150 C52        -5.4080   -2.5670   -4.8520 c         1 MOL      0.783503
    151 O22        -6.1460   -2.5380   -5.8420 o         1 MOL     -0.750154
    152 O23        -4.1810   -2.6920   -4.9600 o         1 MOL     -0.750154
    153 H65        -5.3480   -0.1050   -1.5880 hn        1 MOL      0.249669
    154 H66        -6.8860   -2.3920   -0.8650 h1        1 MOL      0.119406
    155 H67        -5.1780   -3.6140   -2.2400 hc        1 MOL     -0.015660
    156 H68        -4.2570   -2.2140   -2.3280 hc        1 MOL     -0.015660
    157 H69        -6.5190   -1.3070   -3.5350 hc        1 MOL      0.029181
    158 H70        -7.0430   -2.9370   -3.3680 hc        1 MOL      0.029181
    159 N14        -4.2900   -1.8240    1.0340 n         1 MOL      0.048150
    160 C53        -3.5450   -2.2120    2.2200 c3        1 MOL     -0.140344
    161 C54        -4.2230   -1.6660    3.5570 c         1 MOL      0.485504
    162 O24        -4.2100   -2.2620    4.6050 o         1 MOL     -0.559210
    163 C55        -2.1430   -1.6210    2.0710 c3        1 MOL     -0.181331
    164 C56        -1.3600   -2.1780    0.8880 c3        1 MOL      0.017585
    165 C57        -0.1360   -1.2790    0.5870 c         1 MOL      0.761154
    166 O25         0.8590   -1.7110   -0.0140 o         1 MOL     -0.758845
    167 O26        -0.1740   -0.0330    0.7770 o         1 MOL     -0.758845
    168 H71        -4.2640   -0.8550    0.7580 hn        1 MOL     -0.071660
    169 H72        -3.4680   -3.2960    2.3070 h1        1 MOL      0.095541
    170 H73        -1.4980   -1.6780    2.9500 hc        1 MOL      0.069410
    171 H74        -2.2120   -0.5430    1.9490 hc        1 MOL      0.069410
    172 H75        -1.9540   -2.1640   -0.0210 hc        1 MOL      0.038432
    173 H76        -1.0570   -3.2080    1.0950 hc        1 MOL      0.038432
    174 N15        -4.8780   -0.4920    3.4670 n         1 MOL     -0.071333
    175 C58        -5.8170    0.0450    4.4820 c3        1 MOL     -0.210656
    176 H77        -6.1250    1.0500    4.1950 h1        1 MOL      0.084373
    177 H78        -6.6950   -0.5990    4.5430 h1        1 MOL      0.084373
    178 H79        -5.3230    0.0800    5.4520 h1        1 MOL      0.084373
    179 H80        -4.8880   -0.1690    2.5090 hn        1 MOL      0.062069
    180 Ca1         2.6140    0.1200    0.4500 Ca        1 MOL      1.761111
    181 O27         2.5170   -0.0510    3.1140 oh        1 MOL     -0.902990
    182 H81         1.9810   -0.6660    3.6200 ho        1 MOL      0.425703
    183 H82         2.7510    0.6310    3.7410 ho        1 MOL      0.425703
    184 O28         1.3220    1.6470   -1.4400 oh        1 MOL     -0.902990
    185 H83         2.0420    2.1050   -1.8840 ho        1 MOL      0.425703
    186 H84         1.0210    1.0010   -2.0750 ho        1 MOL      0.425703
    187 O29         5.3450    0.4110    1.7270 oh        1 MOL     -0.902990
    188 H85         5.8780    0.3930    2.5300 ho        1 MOL      0.425703
    189 H86         5.0790   -0.5020    1.5990 ho        1 MOL      0.425703
@<TRIPOS>BOND
     1    1    2 1   
     2    1    4 1   
     3    1    5 1   
     4    1    6 1   
     5    2    3 2   
     6    2    7 1   
     7    7    8 1   
     8    7   15 1   
     9    8    9 1   
    10    8   11 1   
    11    8   16 1   
    12    9   10 2   
    13    9   19 1   
    14   11   12 1   
    15   11   17 1   
    16   11   18 1   
    17   12   13 1   
    18   12   14 1   
    19   19   20 1   
    20   19   27 1   
    21   20   21 1   
    22   20   23 1   
    23   20   28 1   
    24   21   22 2   
    25   21   38 1   
    26   23   24 1   
    27   23   25 1   
    28   23   29 1   
    29   24   26 1   
    30   24   30 1   
    31   24   31 1   
    32   25   32 1   
    33   25   33 1   
    34   25   34 1   
    35   26   35 1   
    36   26   36 1   
    37   26   37 1   
    38   38   39 1   
    39   38   46 1   
    40   39   40 1   
    41   39   42 1   
    42   39   47 1   
    43   40   41 2   
    44   40   50 1   
    45   42   43 1   
    46   42   48 1   
    47   42   49 1   
    48   43   44 1   
    49   43   45 1   
    50   50   51 1   
    51   50   54 1   
    52   51   52 1   
    53   51   55 1   
    54   51   56 1   
    55   52   53 2   
    56   52   57 1   
    57   57   58 1   
    58   57   65 1   
    59   58   59 1   
    60   58   61 1   
    61   58   66 1   
    62   59   60 2   
    63   59   69 1   
    64   61   62 1   
    65   61   67 1   
    66   61   68 1   
    67   62   63 1   
    68   62   64 1   
    69   69   70 1   
    70   69   73 1   
    71   70   71 1   
    72   70   74 1   
    73   70   75 1   
    74   71   72 2   
    75   71   76 1   
    76   76   77 1   
    77   76   85 1   
    78   77   78 1   
    79   77   80 1   
    80   77   86 1   
    81   78   79 2   
    82   78   93 1   
    83   80   81 1   
    84   80   87 1   
    85   80   88 1   
    86   81   82 1   
    87   81   89 1   
    88   81   90 1   
    89   82   83 1   
    90   82   84 2   
    91   83   91 1   
    92   83   92 1   
    93   93   94 1   
    94   93  100 1   
    95   94   95 1   
    96   94   97 1   
    97   94  101 1   
    98   95   96 2   
    99   95  109 1   
   100   97   98 1   
   101   97   99 1   
   102   97  102 1   
   103   98  103 1   
   104   98  104 1   
   105   98  105 1   
   106   99  106 1   
   107   99  107 1   
   108   99  108 1   
   109  109  110 1   
   110  109  117 1   
   111  110  111 1   
   112  110  113 1   
   113  110  118 1   
   114  111  112 2   
   115  111  123 1   
   116  113  114 1   
   117  113  119 1   
   118  113  120 1   
   119  114  115 1   
   120  114  116 2   
   121  115  121 1   
   122  115  122 1   
   123  123  124 1   
   124  123  135 1   
   125  124  125 1   
   126  124  127 1   
   127  124  136 1   
   128  125  126 2   
   129  125  144 1   
   130  127  128 1   
   131  127  137 1   
   132  127  138 1   
   133  128  129 ar  
   134  128  130 ar  
   135  129  131 ar  
   136  129  139 1   
   137  130  132 ar  
   138  130  140 1   
   139  131  133 ar  
   140  131  141 1   
   141  132  133 ar  
   142  132  142 1   
   143  133  134 1   
   144  134  143 1   
   145  144  145 1   
   146  144  153 1   
   147  145  146 1   
   148  145  148 1   
   149  145  154 1   
   150  146  147 2   
   151  146  159 1   
   152  148  149 1   
   153  148  155 1   
   154  148  156 1   
   155  149  150 1   
   156  149  157 1   
   157  149  158 1   
   158  150  151 1   
   159  150  152 1   
   160  159  160 1   
   161  159  168 1   
   162  160  161 1   
   163  160  163 1   
   164  160  169 1   
   165  161  162 2   
   166  161  174 1   
   167  163  164 1   
   168  163  170 1   
   169  163  171 1   
   170  164  165 1   
   171  164  172 1   
   172  164  173 1   
   173  165  166 1   
   174  165  167 1   
   175  174  175 1   
   176  174  179 1   
   177  175  176 1   
   178  175  177 1   
   179  175  178 1   
   180  181  182 1   
   181  181  183 1   
   182  184  185 1   
   183  184  186 1   
   184  187  188 1   
   185  187  189 1   
@<TRIPOS>SUBSTRUCTURE
     1 MOL         1 TEMP              0 ****  ****    0 ROOT
