@<TRIPOS>MOLECULE
MOL
  175   173     1     0     0
SMALL
resp


@<TRIPOS>ATOM
      1 C1          0.2860    4.6410    4.9160 c3        1 MOL     -0.239610
      2 C2         -0.3830    4.3510    3.5450 c         1 MOL      0.773628
      3 O1          0.2050    4.6540    2.5280 o         1 MOL     -0.568310
      4 H1          1.3540    4.8060    4.7710 hc        1 MOL      0.049658
      5 H2         -0.1620    5.5320    5.3580 hc        1 MOL      0.049658
      6 H3          0.1360    3.7900    5.5810 hc        1 MOL      0.049658
      7 N1         -1.6290    3.8800    3.5360 n         1 MOL     -0.731711
      8 C3         -2.4350    3.5510    2.3650 c3        1 MOL      0.345716
      9 C4         -2.6810    4.7740    1.4050 c         1 MOL      0.597840
     10 O2         -2.9850    5.8680    1.8710 o         1 MOL     -0.609142
     11 C5         -3.8650    3.0760    2.7480 c3        1 MOL     -0.371014
     12 C6         -4.5930    2.5210    1.5010 c         1 MOL      0.645597
     13 O3         -5.7760    2.7560    1.3110 o         1 MOL     -0.600643
     14 O4         -3.9770    1.8230    0.6430 o         1 MOL     -0.600643
     15 H4         -1.9770    3.5190    4.4160 hn        1 MOL      0.322586
     16 H5         -1.9100    2.7950    1.7800 h1        1 MOL     -0.004249
     17 H6         -4.5150    3.8780    3.0970 hc        1 MOL      0.077689
     18 H7         -3.6340    2.3160    3.4900 hc        1 MOL      0.077689
     19 N2         -2.5800    4.5230    0.1420 n         1 MOL     -0.422335
     20 C7         -3.0410    5.4480   -0.9210 c3        1 MOL      0.358409
     21 C8         -3.8370    4.7620   -2.0620 c         1 MOL      0.469486
     22 O5         -4.1740    5.4200   -3.0500 o         1 MOL     -0.582183
     23 C9         -1.8080    6.2370   -1.4370 c3        1 MOL     -0.346158
     24 H8         -2.1740    3.6190   -0.0660 hn        1 MOL      0.214457
     25 H9         -3.8300    6.0700   -0.4850 h1        1 MOL     -0.003266
     26 H10        -1.2750    6.6390   -0.5790 hc        1 MOL      0.081258
     27 H11        -1.2040    5.6250   -2.1120 hc        1 MOL      0.081258
     28 H12        -2.2550    7.0560   -2.0010 hc        1 MOL      0.081258
     29 N3         -4.2650    3.5340   -1.8400 n         1 MOL     -0.231160
     30 C10        -5.1040    2.8110   -2.8440 c3        1 MOL      0.048556
     31 C11        -6.3730    1.9670   -2.4270 c         1 MOL      0.373687
     32 O6         -7.2300    1.7660   -3.2580 o         1 MOL     -0.533533
     33 C12        -4.2130    1.9370   -3.7680 c3        1 MOL     -0.243872
     34 C13        -3.3200    0.9350   -2.9020 c         1 MOL      0.595342
     35 O7         -3.9110    0.2810   -2.0150 o         1 MOL     -0.658749
     36 O8         -2.0420    1.0020   -2.9300 o         1 MOL     -0.658749
     37 H13        -4.1630    3.1110   -0.9330 hn        1 MOL      0.090980
     38 H14        -5.5980    3.5540   -3.4720 h1        1 MOL      0.083459
     39 H15        -3.5010    2.5590   -4.3180 hc        1 MOL      0.074689
     40 H16        -4.8570    1.3970   -4.4700 hc        1 MOL      0.074689
     41 N4         -6.4340    1.4570   -1.1730 n         1 MOL     -0.103088
     42 C14        -7.5400    0.6110   -0.6210 c3        1 MOL     -0.271728
     43 C15        -7.3220   -0.9090   -0.9010 c         1 MOL      0.550578
     44 O9         -8.2860   -1.6340   -0.7710 o         1 MOL     -0.620095
     45 H17        -5.5990    1.5740   -0.6250 hn        1 MOL      0.103917
     46 H18        -8.4870    0.8210   -1.1230 h1        1 MOL      0.130897
     47 H19        -7.6610    0.7610    0.4460 h1        1 MOL      0.130897
     48 N5         -6.2120   -1.4040   -1.4640 n         1 MOL     -0.233811
     49 C16        -5.9590   -2.7910   -1.8900 c3        1 MOL     -0.061336
     50 C17        -5.8930   -3.9130   -0.7830 c         1 MOL      0.398925
     51 O10        -5.6620   -5.0880   -1.0520 o         1 MOL     -0.521460
     52 C18        -4.7810   -2.7920   -2.8740 c3        1 MOL     -0.205169
     53 C19        -3.4240   -2.5740   -2.2680 c         1 MOL      0.412719
     54 N6         -2.4660   -2.3620   -3.1420 n         1 MOL     -0.552586
     55 O11        -3.2980   -2.4650   -1.0570 o         1 MOL     -0.186453
     56 H20        -5.5020   -0.7090   -1.6640 hn        1 MOL      0.242093
     57 H21        -6.8460   -3.0330   -2.4810 h1        1 MOL      0.097018
     58 H22        -4.9550   -2.1510   -3.7400 hc        1 MOL      0.073938
     59 H23        -4.7790   -3.8360   -3.2060 hc        1 MOL      0.073938
     60 H24        -2.6250   -2.5330   -4.1200 hn        1 MOL      0.312647
     61 H25        -1.5110   -2.3100   -2.8300 hn        1 MOL      0.312647
     62 N7         -5.8840   -3.4750    0.4450 n         1 MOL     -0.098090
     63 C20        -5.8570   -4.1280    1.7240 c3        1 MOL     -0.154488
     64 C21        -4.4510   -4.5980    2.1790 c         1 MOL      0.573438
     65 O12        -4.3890   -5.4750    3.0300 o         1 MOL     -0.570434
     66 H26        -6.0560   -2.4830    0.5550 hn        1 MOL      0.164920
     67 H27        -6.6070   -4.9120    1.7470 h1        1 MOL      0.081296
     68 H28        -6.1510   -3.4920    2.5590 h1        1 MOL      0.081296
     69 N8         -3.3690   -4.0760    1.4700 n         1 MOL     -0.323885
     70 C22        -1.9510   -4.3990    1.6240 c3        1 MOL     -0.044456
     71 C23        -1.0940   -3.1420    1.7750 c         1 MOL      0.490892
     72 O13        -1.2470   -2.1600    1.0500 o         1 MOL     -0.547569
     73 C24        -1.3600   -5.2160    0.4620 c3        1 MOL      0.690843
     74 C25        -1.8620   -6.6490    0.4960 c3        1 MOL     -0.429442
     75 O14        -1.5290   -4.5470   -0.7550 oh        1 MOL     -0.656997
     76 H29        -3.5880   -3.4560    0.7120 hn        1 MOL      0.059516
     77 H30        -1.8890   -5.0020    2.5280 h1        1 MOL      0.035820
     78 H31        -0.3130   -5.2780    0.7560 h1        1 MOL     -0.103262
     79 H32        -1.8390   -3.6650   -0.5300 ho        1 MOL      0.300892
     80 H33        -1.3530   -7.1740    1.3170 hc        1 MOL      0.091839
     81 H34        -2.9440   -6.7450    0.5580 hc        1 MOL      0.091839
     82 H35        -1.6140   -7.2150   -0.4050 hc        1 MOL      0.091839
     83 N9         -0.0230   -3.2700    2.6260 n         1 MOL     -0.532429
     84 C26         1.1080   -2.3280    2.4130 c3        1 MOL     -0.018741
     85 C27         1.8290   -2.7740    1.1590 c         1 MOL      0.325119
     86 O15         2.3340   -3.9080    0.9210 o         1 MOL     -0.544033
     87 C28         2.0160   -2.3260    3.6510 c3        1 MOL      0.124576
     88 C29         1.2640   -2.1950    5.0340 c3        1 MOL      0.095618
     89 C30         2.9400   -1.0500    3.4970 c3        1 MOL     -0.090472
     90 C31         2.1480   -2.3480    6.2700 c3        1 MOL     -0.139199
     91 H36         0.1200   -4.0950    3.1960 hn        1 MOL      0.332125
     92 H37         0.6630   -1.3440    2.2910 h1        1 MOL      0.139067
     93 H38         2.6760   -3.1970    3.6920 hc        1 MOL     -0.006471
     94 H39         0.4820   -2.9630    4.9590 hc        1 MOL     -0.040874
     95 H40         0.7140   -1.2480    5.0530 hc        1 MOL     -0.040874
     96 H41         2.3990   -0.1040    3.4600 hc        1 MOL      0.010065
     97 H42         3.7310   -0.9770    4.2470 hc        1 MOL      0.010065
     98 H43         3.6220   -1.1550    2.6680 hc        1 MOL      0.010065
     99 H44         2.9260   -1.5900    6.1730 hc        1 MOL      0.025555
    100 H45         1.5950   -2.2000    7.1920 hc        1 MOL      0.025555
    101 H46         2.5140   -3.3650    6.3870 hc        1 MOL      0.025555
    102 N10         1.8530   -1.8190    0.2140 n         1 MOL     -0.032057
    103 C32         2.6840   -1.9140   -0.9850 c3        1 MOL      0.053064
    104 C33         4.1060   -1.4220   -0.6380 c         1 MOL      0.369043
    105 O16         4.2940   -0.7010    0.3420 o         1 MOL     -0.336617
    106 C34         2.1070   -1.2430   -2.1850 c3        1 MOL     -0.252825
    107 C35         0.6690   -1.5160   -2.3960 c         1 MOL      0.745166
    108 O17         0.3450   -2.2950   -3.3830 o         1 MOL     -0.705161
    109 O18        -0.2010   -1.0640   -1.6480 o         1 MOL     -0.705161
    110 H47         1.3120   -0.9870    0.3870 hn        1 MOL      0.203039
    111 H48         2.8700   -2.9650   -1.1930 h1        1 MOL      0.056997
    112 H49         2.6470   -1.3730   -3.1250 hc        1 MOL      0.050314
    113 H50         2.1740   -0.1990   -1.8850 hc        1 MOL      0.050314
    114 N11         5.0510   -1.8240   -1.5100 n         1 MOL     -0.513586
    115 C36         6.4840   -1.4980   -1.3240 c3        1 MOL      0.205158
    116 C37         6.7910   -0.0070   -1.0550 c         1 MOL      0.512970
    117 O19         7.4420    0.3100   -0.0890 o         1 MOL     -0.537325
    118 C38         7.2220   -2.1160   -2.4780 c3        1 MOL      0.020866
    119 C39         8.7190   -1.9780   -2.3060 ca        1 MOL      0.012827
    120 C40         9.3010   -0.7200   -2.4810 ca        1 MOL     -0.178756
    121 C41         9.4350   -2.9670   -1.6570 ca        1 MOL     -0.178756
    122 C42        10.6520   -0.5600   -2.1540 ca        1 MOL     -0.062814
    123 C43        10.8110   -2.7970   -1.3400 ca        1 MOL     -0.062814
    124 C44        11.4500   -1.5560   -1.6280 ca        1 MOL     -0.139981
    125 H51         4.7790   -2.3640   -2.3140 hn        1 MOL      0.312771
    126 H52         6.8310   -2.0550   -0.4510 h1        1 MOL      0.041322
    127 H53         6.9120   -1.6890   -3.4350 hc        1 MOL      0.010212
    128 H54         6.9400   -3.1680   -2.5640 hc        1 MOL      0.010212
    129 H55         8.6800    0.0970   -2.8230 ha        1 MOL      0.110019
    130 H56         8.8330   -3.7830   -1.2710 ha        1 MOL      0.110019
    131 H57        11.1590    0.3820   -2.3080 ha        1 MOL      0.089766
    132 H58        11.4400   -3.6360   -1.0750 ha        1 MOL      0.089766
    133 H59        12.5070   -1.3790   -1.5020 ha        1 MOL      0.113427
    134 N12         6.1670    0.8920   -1.8730 n         1 MOL      0.016723
    135 C45         6.3870    2.3240   -1.6540 c3        1 MOL     -0.130691
    136 C46         5.7410    2.9420   -0.4330 c         1 MOL      0.409356
    137 O20         6.1460    4.0630   -0.0690 o         1 MOL     -0.511407
    138 C47         5.8840    2.9740   -2.9490 c3        1 MOL     -0.130661
    139 C48         4.7650    2.0170   -3.3000 c3        1 MOL      0.073662
    140 C49         5.5800    0.6760   -3.1380 c3        1 MOL     -0.165894
    141 H60         7.4560    2.5070   -1.5330 h1        1 MOL      0.088366
    142 H61         5.5630    3.9970   -2.7780 hc        1 MOL      0.067334
    143 H62         6.6530    3.0220   -3.7230 hc        1 MOL      0.067334
    144 H63         3.9020    2.0640   -2.6440 hc        1 MOL      0.009077
    145 H64         4.3940    2.2340   -4.3000 hc        1 MOL      0.009077
    146 H65         4.8550   -0.1350   -3.1170 h1        1 MOL      0.053451
    147 H66         6.1850    0.5460   -4.0370 h1        1 MOL      0.053451
    148 N13         4.7240    2.2340    0.2040 n         1 MOL     -0.103083
    149 C50         4.0220    2.7360    1.3590 c3        1 MOL     -0.228261
    150 C51         4.7880    2.2680    2.6310 c         1 MOL      0.524762
    151 O21         4.8650    3.0000    3.6070 o         1 MOL     -0.561783
    152 C52         2.5260    2.2240    1.4160 c3        1 MOL      0.237572
    153 C53         1.6760    2.4350    0.1780 c3        1 MOL     -0.209225
    154 C54         0.2990    1.7520    0.2290 c         1 MOL      0.625756
    155 O22        -0.6740    2.2940   -0.2900 o         1 MOL     -0.669306
    156 O23         0.1590    0.6770    0.8490 o         1 MOL     -0.669306
    157 H67         4.5450    1.2880   -0.1040 hn        1 MOL      0.129107
    158 H68         3.9490    3.8250    1.3270 h1        1 MOL      0.123615
    159 H69         1.9990    2.7010    2.2510 hc        1 MOL     -0.056820
    160 H70         2.5500    1.1570    1.6410 hc        1 MOL     -0.056820
    161 H71         2.2270    1.9450   -0.6310 hc        1 MOL      0.070983
    162 H72         1.5690    3.4910   -0.0600 hc        1 MOL      0.070983
    163 N14         5.2820    1.0390    2.5150 n         1 MOL     -0.048647
    164 C55         6.3180    0.5270    3.3670 c3        1 MOL     -0.252895
    165 H73         7.2750    0.9630    3.0780 h1        1 MOL      0.091497
    166 H74         6.1000    0.7870    4.4030 h1        1 MOL      0.091497
    167 H75         6.3690   -0.5570    3.2680 h1        1 MOL      0.091497
    168 H76         5.0210    0.5260    1.6840 hn        1 MOL      0.027508
    169 Ca1        -2.1460    0.0700   -0.2430 Ca        1 MOL      1.679304
    170 O24        -4.5180   -0.5650    1.2310 oh        1 MOL     -0.836066
    171 H77        -4.4310    0.3740    1.0990 ho        1 MOL      0.390279
    172 H78        -5.0780   -0.6530    2.0060 ho        1 MOL      0.390279
    173 O25        -1.7480    0.4280    2.5940 oh        1 MOL     -0.836066
    174 H79        -0.8050    0.4050    2.4600 ho        1 MOL      0.390279
    175 H80        -1.8490    0.7670    3.4890 ho        1 MOL      0.390279
@<TRIPOS>BOND
     1    1    2 1   
     2    1    4 1   
     3    1    5 1   
     4    1    6 1   
     5    2    3 2   
     6    2    7 1   
     7    7    8 1   
     8    7   15 1   
     9    8    9 1   
    10    8   11 1   
    11    8   16 1   
    12    9   10 2   
    13    9   19 1   
    14   11   12 1   
    15   11   17 1   
    16   11   18 1   
    17   12   13 1   
    18   12   14 1   
    19   19   20 1   
    20   19   24 1   
    21   20   21 1   
    22   20   23 1   
    23   20   25 1   
    24   21   22 2   
    25   21   29 1   
    26   23   26 1   
    27   23   27 1   
    28   23   28 1   
    29   29   30 1   
    30   29   37 1   
    31   30   31 1   
    32   30   33 1   
    33   30   38 1   
    34   31   32 2   
    35   31   41 1   
    36   33   34 1   
    37   33   39 1   
    38   33   40 1   
    39   34   35 1   
    40   34   36 1   
    41   41   42 1   
    42   41   45 1   
    43   42   43 1   
    44   42   46 1   
    45   42   47 1   
    46   43   44 2   
    47   43   48 1   
    48   48   49 1   
    49   48   56 1   
    50   49   50 1   
    51   49   52 1   
    52   49   57 1   
    53   50   51 2   
    54   50   62 1   
    55   52   53 1   
    56   52   58 1   
    57   52   59 1   
    58   53   54 1   
    59   53   55 2   
    60   54   60 1   
    61   54   61 1   
    62   62   63 1   
    63   62   66 1   
    64   63   64 1   
    65   63   67 1   
    66   63   68 1   
    67   64   65 2   
    68   64   69 1   
    69   69   70 1   
    70   69   76 1   
    71   70   71 1   
    72   70   73 1   
    73   70   77 1   
    74   71   72 2   
    75   71   83 1   
    76   73   74 1   
    77   73   75 1   
    78   73   78 1   
    79   74   80 1   
    80   74   81 1   
    81   74   82 1   
    82   75   79 1   
    83   83   84 1   
    84   83   91 1   
    85   84   85 1   
    86   84   87 1   
    87   84   92 1   
    88   85   86 2   
    89   85  102 1   
    90   87   88 1   
    91   87   89 1   
    92   87   93 1   
    93   88   90 1   
    94   88   94 1   
    95   88   95 1   
    96   89   96 1   
    97   89   97 1   
    98   89   98 1   
    99   90   99 1   
   100   90  100 1   
   101   90  101 1   
   102  102  103 1   
   103  102  110 1   
   104  103  104 1   
   105  103  106 1   
   106  103  111 1   
   107  104  105 2   
   108  104  114 1   
   109  106  107 1   
   110  106  112 1   
   111  106  113 1   
   112  107  108 1   
   113  107  109 1   
   114  114  115 1   
   115  114  125 1   
   116  115  116 1   
   117  115  118 1   
   118  115  126 1   
   119  116  117 2   
   120  116  134 1   
   121  118  119 1   
   122  118  127 1   
   123  118  128 1   
   124  119  120 ar  
   125  119  121 ar  
   126  120  122 ar  
   127  120  129 1   
   128  121  123 ar  
   129  121  130 1   
   130  122  124 ar  
   131  122  131 1   
   132  123  124 ar  
   133  123  132 1   
   134  124  133 1   
   135  134  135 1   
   136  134  140 1   
   137  135  136 1   
   138  135  138 1   
   139  135  141 1   
   140  136  137 2   
   141  136  148 1   
   142  138  139 1   
   143  138  142 1   
   144  138  143 1   
   145  139  140 1   
   146  139  144 1   
   147  139  145 1   
   148  140  146 1   
   149  140  147 1   
   150  148  149 1   
   151  148  157 1   
   152  149  150 1   
   153  149  152 1   
   154  149  158 1   
   155  150  151 2   
   156  150  163 1   
   157  152  153 1   
   158  152  159 1   
   159  152  160 1   
   160  153  154 1   
   161  153  161 1   
   162  153  162 1   
   163  154  155 1   
   164  154  156 1   
   165  163  164 1   
   166  163  168 1   
   167  164  165 1   
   168  164  166 1   
   169  164  167 1   
   170  170  171 1   
   171  170  172 1   
   172  173  174 1   
   173  173  175 1   
@<TRIPOS>SUBSTRUCTURE
     1 MOL         1 TEMP              0 ****  ****    0 ROOT
