@<TRIPOS>MOLECULE
MOL
  179   176     1     0     0
SMALL
resp


@<TRIPOS>ATOM
      1 C1          2.3270    1.2740    5.7310 c3        1 MOL     -0.301954
      2 C2          1.8120    1.4430    4.3040 c         1 MOL      0.797010
      3 O1          2.5880    1.3470    3.3870 o         1 MOL     -0.615040
      4 H1          2.9080    2.1520    6.0120 hc        1 MOL      0.070810
      5 H2          1.4840    1.1630    6.4120 hc        1 MOL      0.070810
      6 H3          2.9600    0.3880    5.7870 hc        1 MOL      0.070810
      7 N1          0.5490    1.8210    4.1660 n         1 MOL     -0.689585
      8 C3         -0.1650    1.8490    2.8990 c3        1 MOL      0.222236
      9 C4          0.0750    3.2680    2.2380 c         1 MOL      0.435216
     10 O2         -0.4600    4.2830    2.7340 o         1 MOL     -0.485188
     11 C5         -1.6160    1.3690    3.0690 c3        1 MOL     -0.502005
     12 C6         -2.5000    1.4910    1.8210 c         1 MOL      0.835803
     13 O3         -2.1330    1.8380    0.6830 o         1 MOL     -0.719049
     14 O4         -3.7270    1.3020    2.1010 o         1 MOL     -0.719049
     15 H4          0.0610    2.0940    5.0000 hn        1 MOL      0.359965
     16 H5          0.2760    1.1650    2.1750 h1        1 MOL      0.067328
     17 H6         -2.1230    2.0660    3.7370 hc        1 MOL      0.139697
     18 H7         -1.6110    0.3270    3.3740 hc        1 MOL      0.139697
     19 N2          0.9300    3.3520    1.2020 n         1 MOL     -0.046599
     20 C7          1.3850    4.6020    0.6040 c3        1 MOL     -0.169496
     21 C8          0.1790    5.4060    0.1590 c         1 MOL      0.286109
     22 O5          0.0260    6.5930    0.5500 o         1 MOL     -0.490577
     23 C9          2.4860    4.3840   -0.4500 c3        1 MOL     -0.079588
     24 C10         2.8620    5.6620   -1.2220 c3        1 MOL     -0.045592
     25 C11         4.0700    5.4190   -2.1650 c3        1 MOL     -0.302513
     26 C12         5.3830    5.0420   -1.4060 c3        1 MOL     -0.094402
     27 N3          5.9280    6.1430   -0.6900 n4        1 MOL     -0.264752
     28 H8          1.2790    2.4950    0.8040 hn        1 MOL     -0.013176
     29 H9          1.9120    5.2310    1.3300 h1        1 MOL      0.104545
     30 H10         2.0080    3.7010   -1.1540 hc        1 MOL      0.130235
     31 H11         3.3910    3.8320   -0.1780 hc        1 MOL      0.130235
     32 H12         3.1920    6.3890   -0.4700 hc        1 MOL      0.070165
     33 H13         2.0340    6.0960   -1.7800 hc        1 MOL      0.070165
     34 H14         4.1360    6.3740   -2.6880 hc        1 MOL      0.125890
     35 H15         3.8670    4.6130   -2.8780 hc        1 MOL      0.125890
     36 H16         6.1580    4.6740   -2.0670 hx        1 MOL      0.151761
     37 H17         5.1710    4.2600   -0.6680 hx        1 MOL      0.151761
     38 H18         5.2860    6.6240   -0.0780 hn        1 MOL      0.306031
     39 H19         6.7530    5.9710   -0.1260 hn        1 MOL      0.306031
     40 H20         6.2750    6.8750   -1.2990 hn        1 MOL      0.306031
     41 N4         -0.7360    4.7390   -0.6230 n         1 MOL     -0.088386
     42 C13        -1.7900    5.2870   -1.5010 c3        1 MOL      0.030784
     43 C14        -3.1770    5.3060   -0.8660 c         1 MOL      0.371099
     44 O6         -4.1300    5.9040   -1.3600 o         1 MOL     -0.531699
     45 C15        -1.7220    4.6080   -2.8810 c3        1 MOL     -0.232476
     46 C16        -1.5880    3.1360   -2.7460 c         1 MOL      0.770071
     47 O7         -0.4790    2.6400   -2.4390 o         1 MOL     -0.749389
     48 O8         -2.5490    2.3890   -2.7040 o         1 MOL     -0.749389
     49 H21        -0.5620    3.7390   -0.7040 hn        1 MOL      0.028138
     50 H22        -1.5140    6.3190   -1.7000 h1        1 MOL      0.086534
     51 H23        -0.8030    4.9580   -3.3610 hc        1 MOL      0.070223
     52 H24        -2.5210    4.9780   -3.5260 hc        1 MOL      0.070223
     53 N5         -3.2920    4.5370    0.1880 n         1 MOL     -0.017358
     54 C17        -4.4530    4.3960    1.0800 c3        1 MOL     -0.448073
     55 C18        -5.5770    3.5090    0.5260 c         1 MOL      0.619865
     56 O9         -6.7340    3.4420    0.9510 o         1 MOL     -0.579684
     57 H25        -2.5460    3.9240    0.5010 hn        1 MOL      0.155660
     58 H26        -4.8230    5.3920    1.3030 h1        1 MOL      0.176871
     59 H27        -4.1700    3.8360    1.9630 h1        1 MOL      0.176871
     60 N6         -5.2270    2.6800   -0.4810 n         1 MOL     -0.277189
     61 C19        -6.1710    1.7630   -1.1380 c3        1 MOL     -0.152352
     62 C20        -6.6530    0.6230   -0.1840 c         1 MOL      0.278735
     63 O10        -7.6090   -0.1090   -0.5740 o         1 MOL     -0.521088
     64 C21        -5.6240    1.2010   -2.4730 c3        1 MOL     -0.015069
     65 C22        -4.5460    0.0120   -2.3000 c         1 MOL      0.207331
     66 N7         -4.5250   -1.0000   -3.1530 n         1 MOL     -0.537760
     67 O11        -3.8180   -0.0470   -1.3290 o         1 MOL      0.071251
     68 H28        -4.2830    2.6890   -0.8420 hn        1 MOL      0.198896
     69 H29        -7.0890    2.2930   -1.3770 h1        1 MOL      0.141261
     70 H30        -5.1030    2.0210   -2.9780 hc        1 MOL      0.052526
     71 H31        -6.4670    0.9650   -3.1190 hc        1 MOL      0.052526
     72 H32        -4.9690   -0.8300   -4.0520 hn        1 MOL      0.276077
     73 H33        -3.8650   -1.7540   -3.1870 hn        1 MOL      0.276077
     74 N8         -6.0620    0.4200    0.9820 n         1 MOL      0.205321
     75 C23        -6.5410   -0.6170    1.9000 c3        1 MOL     -0.609133
     76 C24        -5.6210   -1.8440    1.9470 c         1 MOL      0.861924
     77 O12        -6.0420   -2.8520    2.5700 o         1 MOL     -0.599297
     78 H34        -5.2380    0.9360    1.2650 hn        1 MOL      0.108255
     79 H35        -7.4800   -1.0980    1.6500 h1        1 MOL      0.188774
     80 H36        -6.7190   -0.1410    2.8680 h1        1 MOL      0.188774
     81 N9         -4.4490   -1.7240    1.3440 n         1 MOL     -0.979700
     82 C25        -3.4930   -2.8390    1.0710 c3        1 MOL      0.576804
     83 C26        -2.0980   -2.2170    1.0550 c         1 MOL      0.457518
     84 O13        -1.8630   -1.0700    0.6860 o         1 MOL     -0.762352
     85 C27        -3.7170   -3.4420   -0.3070 c3        1 MOL     -0.214142
     86 C28        -5.0360   -4.1950   -0.4800 ca        1 MOL      0.014679
     87 C29        -6.1890   -3.4600   -0.8410 ca        1 MOL     -0.074664
     88 C30        -5.0980   -5.6080   -0.5520 ca        1 MOL     -0.074664
     89 C31        -7.3700   -4.1300   -1.1460 ca        1 MOL     -0.330995
     90 C32        -6.2790   -6.3200   -0.9330 ca        1 MOL     -0.330995
     91 C33        -7.4600   -5.5970   -1.1610 ca        1 MOL      0.388566
     92 O14        -8.6840   -6.2020   -1.3850 oh        1 MOL     -0.491373
     93 H37        -4.2270   -0.8560    0.8810 hn        1 MOL      0.611088
     94 H38        -3.6290   -3.5330    1.8990 h1        1 MOL     -0.049324
     95 H39        -2.9340   -4.0990   -0.6700 hc        1 MOL      0.015639
     96 H40        -3.7720   -2.5460   -0.9240 hc        1 MOL      0.015639
     97 H41        -6.0440   -2.3930   -0.9650 ha        1 MOL      0.076891
     98 H42        -4.1690   -6.1180   -0.3320 ha        1 MOL      0.076891
     99 H43        -8.3160   -3.6560   -1.3130 ha        1 MOL      0.161724
    100 H44        -6.2760   -7.3960   -0.8530 ha        1 MOL      0.161724
    101 H45        -8.7690   -7.1280   -1.1360 ho        1 MOL      0.360504
    102 N10        -1.1600   -3.0690    1.4370 n         1 MOL     -0.348500
    103 C34         0.2410   -2.8620    1.5240 c3        1 MOL      0.158204
    104 C35         0.9870   -3.6430    0.4170 c         1 MOL      0.312522
    105 O15         0.8120   -4.8500    0.3650 o         1 MOL     -0.546173
    106 C36         0.6810   -3.4000    2.9160 c3        1 MOL      0.026843
    107 C37         0.2230   -2.5770    4.1790 c3        1 MOL      0.136907
    108 C38         2.2430   -3.3480    3.0040 c3        1 MOL     -0.072090
    109 C39         0.5460   -3.2070    5.5510 c3        1 MOL     -0.243044
    110 H46        -1.4790   -3.9710    1.7530 hn        1 MOL      0.222544
    111 H47         0.5820   -1.8300    1.5530 h1        1 MOL      0.075133
    112 H48         0.3690   -4.4420    2.9210 hc        1 MOL      0.026522
    113 H49        -0.8560   -2.4380    4.0670 hc        1 MOL     -0.027219
    114 H50         0.5970   -1.5520    4.1790 hc        1 MOL     -0.027219
    115 H51         2.6710   -3.9710    2.2100 hc        1 MOL      0.002818
    116 H52         2.6580   -2.3480    2.8870 hc        1 MOL      0.002818
    117 H53         2.5910   -3.8960    3.8880 hc        1 MOL      0.002818
    118 H54         0.0040   -2.6470    6.3230 hc        1 MOL      0.060198
    119 H55         0.1230   -4.2110    5.5250 hc        1 MOL      0.060198
    120 H56         1.6050   -3.1280    5.7780 hc        1 MOL      0.060198
    121 N11         1.9330   -3.0790   -0.2700 n         1 MOL     -0.055764
    122 C40         2.8010   -3.8800   -1.2090 c3        1 MOL      0.071981
    123 C41         4.2710   -3.7320   -0.7520 c         1 MOL      0.403436
    124 O16         4.5620   -2.8670    0.1400 o         1 MOL     -0.379278
    125 C42         2.5680   -3.4860   -2.6340 c3        1 MOL      0.174956
    126 O17         1.1780   -3.5900   -2.9710 oh        1 MOL     -0.617123
    127 H57         2.1430   -2.1030   -0.1350 hn        1 MOL      0.165120
    128 H58         2.6160   -4.9590   -1.2160 h1        1 MOL      0.072544
    129 H59         3.1630   -4.1600   -3.2420 h1        1 MOL      0.004764
    130 H60         2.8400   -2.4590   -2.8830 h1        1 MOL      0.004764
    131 H61         1.1180   -4.3550   -3.5420 ho        1 MOL      0.410973
    132 N12         5.2070   -4.5060   -1.3230 n         1 MOL     -0.542083
    133 C43         6.6180   -4.5280   -0.9090 c3        1 MOL      0.195946
    134 C44         7.3590   -3.1860   -0.9310 c         1 MOL      0.460463
    135 O18         7.8230   -2.8090    0.1460 o         1 MOL     -0.506018
    136 C45         7.3180   -5.5450   -1.8190 c3        1 MOL     -0.422814
    137 H62         4.8960   -5.1640   -2.0160 hn        1 MOL      0.332859
    138 H63         6.7320   -4.7750    0.1420 h1        1 MOL      0.097490
    139 H64         8.3720   -5.6800   -1.6070 hc        1 MOL      0.119573
    140 H65         6.8670   -6.5400   -1.8800 hc        1 MOL      0.119573
    141 H66         7.3350   -5.3050   -2.8860 hc        1 MOL      0.119573
    142 N13         7.2950   -2.4230   -2.0000 n         1 MOL     -0.381344
    143 C46         7.9620   -1.0510   -2.1320 c3        1 MOL      0.132701
    144 C47         7.3810   -0.0380   -1.1300 c         1 MOL      0.320995
    145 O19         8.1010    0.8250   -0.5730 o         1 MOL     -0.495099
    146 C48         7.7350   -0.5500   -3.5290 c3        1 MOL     -0.287725
    147 H67         6.8830   -2.8020   -2.8430 hn        1 MOL      0.238334
    148 H68         9.0130   -1.2480   -1.9350 h1        1 MOL      0.101466
    149 H69         8.0470   -1.3750   -4.1720 hc        1 MOL      0.086252
    150 H70         6.6810   -0.4290   -3.7720 hc        1 MOL      0.086252
    151 H71         8.3440    0.3290   -3.7260 hc        1 MOL      0.086252
    152 N14         6.1200   -0.2120   -0.7490 n         1 MOL     -0.142077
    153 C49         5.4730    0.5650    0.2730 c3        1 MOL     -0.027094
    154 C50         5.9620    0.2310    1.6700 c         1 MOL      0.364487
    155 O20         6.3300    1.1430    2.4330 o         1 MOL     -0.529157
    156 C51         3.9840    0.5020    0.1400 c3        1 MOL      0.092016
    157 C52         3.4760    0.6980   -1.3110 c3        1 MOL     -0.214280
    158 C53         1.9610    0.4340   -1.3340 c         1 MOL      0.709390
    159 O21         1.1930    0.8070   -0.4020 o         1 MOL     -0.703158
    160 O22         1.4300   -0.2190   -2.2270 o         1 MOL     -0.703158
    161 H72         5.6100   -1.0420   -1.0440 hn        1 MOL      0.178074
    162 H73         5.7360    1.5990    0.0530 h1        1 MOL      0.025606
    163 H74         3.6350    1.3730    0.6970 hc        1 MOL      0.018568
    164 H75         3.5950   -0.4340    0.5300 hc        1 MOL      0.018568
    165 H76         3.9740   -0.0280   -1.9410 hc        1 MOL      0.020594
    166 H77         3.6950    1.7190   -1.6110 hc        1 MOL      0.020594
    167 N15         6.2160   -1.0480    1.9440 n         1 MOL      0.017667
    168 C54         6.7660   -1.5510    3.2200 c3        1 MOL     -0.261333
    169 H78         7.3920   -0.7830    3.6730 h1        1 MOL      0.107497
    170 H79         5.9470   -1.7990    3.8960 h1        1 MOL      0.107497
    171 H80         7.3640   -2.4430    3.0320 h1        1 MOL      0.107497
    172 H81         5.8440   -1.7100    1.2720 hn        1 MOL      0.063771
    173 Ca1        -1.1700    0.4340   -1.4610 Ca        1 MOL      1.737743
    174 O23        -1.0870   -2.1690   -1.8110 oh        1 MOL     -0.904595
    175 H82        -1.7720   -2.7990   -2.0520 ho        1 MOL      0.424133
    176 H83        -0.3350   -2.4190   -2.3490 ho        1 MOL      0.424133
    177 O24        -1.5260   -0.3200   -4.0430 oh        1 MOL     -0.904595
    178 H84        -1.0730    0.1730   -4.7330 ho        1 MOL      0.424133
    179 H85        -1.8560   -1.1050   -4.4890 ho        1 MOL      0.424133
@<TRIPOS>BOND
     1    1    2 1   
     2    1    4 1   
     3    1    5 1   
     4    1    6 1   
     5    2    3 2   
     6    2    7 1   
     7    7    8 1   
     8    7   15 1   
     9    8    9 1   
    10    8   11 1   
    11    8   16 1   
    12    9   10 2   
    13    9   19 1   
    14   11   12 1   
    15   11   17 1   
    16   11   18 1   
    17   12   13 1   
    18   12   14 1   
    19   19   20 1   
    20   19   28 1   
    21   20   21 1   
    22   20   23 1   
    23   20   29 1   
    24   21   22 2   
    25   21   41 1   
    26   23   24 1   
    27   23   30 1   
    28   23   31 1   
    29   24   25 1   
    30   24   32 1   
    31   24   33 1   
    32   25   26 1   
    33   25   34 1   
    34   25   35 1   
    35   26   27 1   
    36   26   36 1   
    37   26   37 1   
    38   27   38 1   
    39   27   39 1   
    40   27   40 1   
    41   41   42 1   
    42   41   49 1   
    43   42   43 1   
    44   42   45 1   
    45   42   50 1   
    46   43   44 2   
    47   43   53 1   
    48   45   46 1   
    49   45   51 1   
    50   45   52 1   
    51   46   47 1   
    52   46   48 1   
    53   53   54 1   
    54   53   57 1   
    55   54   55 1   
    56   54   58 1   
    57   54   59 1   
    58   55   56 2   
    59   55   60 1   
    60   60   61 1   
    61   60   68 1   
    62   61   62 1   
    63   61   64 1   
    64   61   69 1   
    65   62   63 2   
    66   62   74 1   
    67   64   65 1   
    68   64   70 1   
    69   64   71 1   
    70   65   66 1   
    71   65   67 2   
    72   66   72 1   
    73   66   73 1   
    74   74   75 1   
    75   74   78 1   
    76   75   76 1   
    77   75   79 1   
    78   75   80 1   
    79   76   77 2   
    80   76   81 1   
    81   81   82 1   
    82   81   93 1   
    83   82   83 1   
    84   82   85 1   
    85   82   94 1   
    86   83   84 2   
    87   83  102 1   
    88   85   86 1   
    89   85   95 1   
    90   85   96 1   
    91   86   87 ar  
    92   86   88 ar  
    93   87   89 ar  
    94   87   97 1   
    95   88   90 ar  
    96   88   98 1   
    97   89   91 ar  
    98   89   99 1   
    99   90   91 ar  
   100   90  100 1   
   101   91   92 1   
   102   92  101 1   
   103  102  103 1   
   104  102  110 1   
   105  103  104 1   
   106  103  106 1   
   107  103  111 1   
   108  104  105 2   
   109  104  121 1   
   110  106  107 1   
   111  106  108 1   
   112  106  112 1   
   113  107  109 1   
   114  107  113 1   
   115  107  114 1   
   116  108  115 1   
   117  108  116 1   
   118  108  117 1   
   119  109  118 1   
   120  109  119 1   
   121  109  120 1   
   122  121  122 1   
   123  121  127 1   
   124  122  123 1   
   125  122  125 1   
   126  122  128 1   
   127  123  124 2   
   128  123  132 1   
   129  125  126 1   
   130  125  129 1   
   131  125  130 1   
   132  126  131 1   
   133  132  133 1   
   134  132  137 1   
   135  133  134 1   
   136  133  136 1   
   137  133  138 1   
   138  134  135 2   
   139  134  142 1   
   140  136  139 1   
   141  136  140 1   
   142  136  141 1   
   143  142  143 1   
   144  142  147 1   
   145  143  144 1   
   146  143  146 1   
   147  143  148 1   
   148  144  145 2   
   149  144  152 1   
   150  146  149 1   
   151  146  150 1   
   152  146  151 1   
   153  152  153 1   
   154  152  161 1   
   155  153  154 1   
   156  153  156 1   
   157  153  162 1   
   158  154  155 2   
   159  154  167 1   
   160  156  157 1   
   161  156  163 1   
   162  156  164 1   
   163  157  158 1   
   164  157  165 1   
   165  157  166 1   
   166  158  159 1   
   167  158  160 1   
   168  167  168 1   
   169  167  172 1   
   170  168  169 1   
   171  168  170 1   
   172  168  171 1   
   173  174  175 1   
   174  174  176 1   
   175  177  178 1   
   176  177  179 1   
@<TRIPOS>SUBSTRUCTURE
     1 MOL         1 TEMP              0 ****  ****    0 ROOT
