@<TRIPOS>MOLECULE
MOL
  175   173     1     0     0
SMALL
resp


@<TRIPOS>ATOM
      1 C1         -0.8870    2.9500    6.0790 c3        1 MOL     -0.208950
      2 C2         -1.0570    2.5330    4.6100 c         1 MOL      0.814634
      3 O1         -0.1700    2.9530    3.8480 o         1 MOL     -0.618850
      4 H1         -0.5500    2.0940    6.6630 hc        1 MOL      0.035165
      5 H2         -0.1470    3.7490    6.1470 hc        1 MOL      0.035165
      6 H3         -1.8410    3.3030    6.4700 hc        1 MOL      0.035165
      7 N1         -2.1120    1.8540    4.1960 n         1 MOL     -0.664661
      8 C3         -2.6700    1.7390    2.7950 c3        1 MOL      0.224635
      9 C4         -2.9870    3.0960    2.2510 c         1 MOL      0.488383
     10 O2         -3.6850    3.8680    2.9640 o         1 MOL     -0.587804
     11 C5         -3.8560    0.7970    2.6890 c3        1 MOL     -0.041379
     12 C6         -4.5210    0.8030    1.3210 c         1 MOL      0.609326
     13 O3         -5.7560    0.7110    1.2870 o         1 MOL     -0.597218
     14 O4         -3.8310    0.9340    0.2780 o         1 MOL     -0.597218
     15 H4         -2.5530    1.2490    4.8750 hn        1 MOL      0.305991
     16 H5         -1.8670    1.3040    2.1980 h1        1 MOL     -0.070151
     17 H6         -4.6380    0.9850    3.4180 hc        1 MOL     -0.022165
     18 H7         -3.4240   -0.1840    2.8800 hc        1 MOL     -0.022165
     19 N2         -2.5500    3.4760    1.0350 n         1 MOL     -0.252337
     20 C7         -2.6420    4.8320    0.4920 c3        1 MOL      0.281574
     21 C8         -3.5670    4.9020   -0.8040 c         1 MOL      0.361173
     22 O5         -3.5970    5.9260   -1.5160 o         1 MOL     -0.521368
     23 C9         -1.1690    5.3300    0.3320 c3        1 MOL     -0.377396
     24 H8         -1.9730    2.8850    0.4630 hn        1 MOL      0.208795
     25 H9         -3.1900    5.4070    1.2430 h1        1 MOL     -0.008555
     26 H10        -0.5020    5.0010    1.1330 hc        1 MOL      0.106402
     27 H11        -0.8310    4.9390   -0.6250 hc        1 MOL      0.106402
     28 H12        -1.1790    6.4150    0.2310 hc        1 MOL      0.106402
     29 N3         -4.1230    3.6980   -1.1520 n         1 MOL     -0.322188
     30 C10        -4.9060    3.6480   -2.3940 c3        1 MOL      0.100297
     31 C11        -6.2590    2.8720   -2.2850 c         1 MOL      0.385985
     32 O6         -6.9790    2.8080   -3.2590 o         1 MOL     -0.519350
     33 C12        -4.0430    3.1020   -3.5260 c3        1 MOL     -0.181656
     34 C13        -3.3150    1.8340   -3.1700 c         1 MOL      0.778342
     35 O7         -2.0590    1.8750   -2.9160 o         1 MOL     -0.766326
     36 O8         -3.8990    0.7360   -3.0760 o         1 MOL     -0.766326
     37 H13        -4.0360    2.9030   -0.5420 hn        1 MOL      0.105771
     38 H14        -5.2250    4.6380   -2.7360 h1        1 MOL      0.079174
     39 H15        -3.3020    3.8840   -3.6950 hc        1 MOL      0.046646
     40 H16        -4.5670    2.9720   -4.4760 hc        1 MOL      0.046646
     41 N4         -6.5660    2.3350   -1.0840 n         1 MOL     -0.246253
     42 C14        -7.8340    1.6570   -0.7720 c3        1 MOL     -0.197394
     43 C15        -7.9710    0.2080   -1.0230 c         1 MOL      0.606359
     44 O9         -9.0690   -0.3410   -0.8070 o         1 MOL     -0.599186
     45 H17        -5.9800    2.5110   -0.2790 hn        1 MOL      0.233538
     46 H18        -8.6350    2.1240   -1.3420 h1        1 MOL      0.095913
     47 H19        -8.0450    1.8060    0.2870 h1        1 MOL      0.095913
     48 N5         -6.8630   -0.3810   -1.5240 n         1 MOL     -0.370029
     49 C16        -6.8110   -1.8530   -1.6920 c3        1 MOL     -0.104889
     50 C17        -6.5630   -2.6650   -0.4040 c         1 MOL      0.424456
     51 O10        -6.6510   -3.9080   -0.4040 o         1 MOL     -0.551484
     52 C18        -5.8820   -2.1710   -2.8850 c3        1 MOL     -0.119624
     53 C19        -4.3890   -2.1950   -2.6020 c         1 MOL      0.573238
     54 N6         -3.5580   -2.6770   -3.5140 n         1 MOL     -0.730732
     55 O11        -4.0000   -1.7080   -1.5030 o         1 MOL     -0.464931
     56 H20        -6.0410    0.1800   -1.7210 hn        1 MOL      0.311787
     57 H21        -7.7920   -2.1140   -2.0720 h1        1 MOL      0.128348
     58 H22        -6.1290   -1.5830   -3.7690 hc        1 MOL      0.060502
     59 H23        -6.0830   -3.1790   -3.2470 hc        1 MOL      0.060502
     60 H24        -3.9050   -2.8960   -4.4360 hn        1 MOL      0.343191
     61 H25        -2.5680   -2.4880   -3.4080 hn        1 MOL      0.343191
     62 N7         -6.4050   -1.9880    0.7700 n         1 MOL     -0.091029
     63 C20        -6.4300   -2.6190    2.0720 c3        1 MOL     -0.148867
     64 C21        -5.1120   -3.2870    2.4880 c         1 MOL      0.472510
     65 O12        -5.0920   -4.1870    3.3220 o         1 MOL     -0.542197
     66 H26        -6.1850   -1.0110    0.7430 hn        1 MOL      0.143362
     67 H27        -7.2900   -3.2790    2.0870 h1        1 MOL      0.092012
     68 H28        -6.7330   -1.7690    2.6820 h1        1 MOL      0.092012
     69 N8         -3.9830   -2.9020    1.7890 n         1 MOL     -0.094071
     70 C22        -2.6100   -3.4340    1.9340 c3        1 MOL     -0.111675
     71 C23        -1.5700   -2.3350    1.5970 c         1 MOL      0.056611
     72 O13        -1.9620   -1.2700    1.1450 o         1 MOL      0.098454
     73 C24        -2.3410   -4.6780    1.0630 c3        1 MOL      0.379115
     74 C25        -3.1980   -5.9110    1.4060 c3        1 MOL     -0.493979
     75 O14        -2.5430   -4.3840   -0.2750 oh        1 MOL     -0.598267
     76 H29        -4.0130   -2.0620    1.2400 hn        1 MOL     -0.056590
     77 H30        -2.5230   -3.8400    2.9410 h1        1 MOL      0.067764
     78 H31        -1.3090   -4.9930    1.1840 h1        1 MOL      0.063770
     79 H32        -3.4230   -4.7080   -0.4780 ho        1 MOL      0.374206
     80 H33        -3.1920   -6.0110    2.4910 hc        1 MOL      0.130377
     81 H34        -4.2010   -5.6610    1.0400 hc        1 MOL      0.130377
     82 H35        -2.7210   -6.7680    0.9500 hc        1 MOL      0.130377
     83 N9         -0.3190   -2.6430    1.8590 n         1 MOL     -0.014730
     84 C26         0.8400   -1.8030    1.5930 c3        1 MOL     -0.038549
     85 C27         1.8100   -2.6840    0.7050 c         1 MOL      0.284960
     86 O15         2.1170   -3.8900    0.9410 o         1 MOL     -0.540010
     87 C28         1.5360   -1.3950    2.9670 c3        1 MOL      0.033478
     88 C29         1.9200   -2.5750    3.9180 c3        1 MOL      0.090815
     89 C30         0.5300   -0.4040    3.6810 c3        1 MOL     -0.340006
     90 C31         2.6520   -2.0750    5.2310 c3        1 MOL     -0.231843
     91 H36        -0.1140   -3.5700    2.1890 hn        1 MOL      0.145583
     92 H37         0.4940   -0.9420    1.0180 h1        1 MOL     -0.318614
     93 H38         2.4390   -0.8800    2.6470 hc        1 MOL      0.024735
     94 H39         2.6000   -3.2240    3.3860 hc        1 MOL      0.002507
     95 H40         1.0400   -3.1420    4.2270 hc        1 MOL      0.002507
     96 H41         0.9490   -0.0100    4.6120 hc        1 MOL      0.096036
     97 H42         0.4010    0.4240    2.9860 hc        1 MOL      0.096036
     98 H43        -0.4510   -0.8060    3.9160 hc        1 MOL      0.096036
     99 H44         3.2040   -2.9600    5.5560 hc        1 MOL      0.049476
    100 H45         3.3250   -1.2550    4.9860 hc        1 MOL      0.049476
    101 H46         1.8330   -1.8240    5.9100 hc        1 MOL      0.049476
    102 N10         2.2450   -1.9730   -0.3650 n         1 MOL     -0.023460
    103 C32         3.4210   -2.3340   -1.2190 c3        1 MOL      0.287817
    104 C33         4.6450   -1.5990   -0.7620 c         1 MOL      0.245946
    105 O16         4.6320   -0.9890    0.2880 o         1 MOL     -0.341514
    106 C34         3.1170   -2.0970   -2.7030 c3        1 MOL     -0.515946
    107 C35         1.7710   -2.6480   -3.1800 c         1 MOL      0.774531
    108 O17         1.2500   -3.6310   -2.7310 o         1 MOL     -0.688187
    109 O18         1.1550   -1.8920   -4.0110 o         1 MOL     -0.688187
    110 H47         1.9650   -1.0070   -0.3960 hn        1 MOL      0.387399
    111 H48         3.6720   -3.3770   -1.0600 h1        1 MOL      0.032442
    112 H49         3.9520   -2.5490   -3.2280 hc        1 MOL      0.099189
    113 H50         3.1670   -1.0160   -2.7900 hc        1 MOL      0.099189
    114 N11         5.8380   -1.7720   -1.4190 n         1 MOL     -0.526113
    115 C36         7.1060   -1.1860   -0.9830 c3        1 MOL      0.412483
    116 C37         7.1460    0.3300   -0.8600 c         1 MOL      0.363553
    117 O19         7.7680    0.7390    0.1610 o         1 MOL     -0.517624
    118 C38         8.1770   -1.7200   -2.0070 c3        1 MOL     -0.336998
    119 C39         9.5900   -1.3980   -1.4480 ca        1 MOL      0.132623
    120 C40         9.9220   -2.1130   -0.3360 ca        1 MOL     -0.239957
    121 C41        10.4960   -0.3600   -1.8960 ca        1 MOL     -0.239957
    122 C42        11.1330   -1.8790    0.3300 ca        1 MOL      0.003951
    123 C43        11.7290   -0.1270   -1.2310 ca        1 MOL      0.003951
    124 C44        12.0600   -0.9110   -0.1420 ca        1 MOL     -0.236605
    125 H51         5.8630   -2.3570   -2.2340 hn        1 MOL      0.270335
    126 H52         7.3020   -1.5150    0.0410 h1        1 MOL      0.025059
    127 H53         8.1450   -1.1930   -2.9590 hc        1 MOL      0.116553
    128 H54         8.1020   -2.7990   -2.1660 hc        1 MOL      0.116553
    129 H55         9.2690   -2.8780    0.0710 ha        1 MOL      0.128902
    130 H56        10.2360    0.2230   -2.7700 ha        1 MOL      0.128902
    131 H57        11.3280   -2.4470    1.2290 ha        1 MOL      0.083935
    132 H58        12.4610    0.5710   -1.6160 ha        1 MOL      0.083935
    133 H59        12.9520   -0.7020    0.4350 ha        1 MOL      0.129309
    134 N12         6.4560    1.1750   -1.6140 n         1 MOL     -0.083265
    135 C45         6.5260    2.6780   -1.4100 c3        1 MOL     -0.033675
    136 C46         5.7320    3.0050   -0.1150 c         1 MOL      0.243622
    137 O20         6.0840    3.9920    0.6060 o         1 MOL     -0.500553
    138 C47         5.8430    3.2830   -2.6630 c3        1 MOL     -0.054233
    139 C48         6.1570    2.2470   -3.7160 c3        1 MOL      0.013984
    140 C49         5.9560    0.9230   -2.9510 c3        1 MOL     -0.058464
    141 H60         7.5470    3.0520   -1.4660 h1        1 MOL      0.090626
    142 H61         4.7670    3.3010   -2.4940 hc        1 MOL      0.047747
    143 H62         6.1550    4.2880   -2.9480 hc        1 MOL      0.047747
    144 H63         5.6330    2.3660   -4.6690 hc        1 MOL      0.023247
    145 H64         7.2010    2.2720   -4.0330 hc        1 MOL      0.023247
    146 H65         4.8940    0.6920   -2.8210 h1        1 MOL      0.025700
    147 H66         6.3940    0.1180   -3.5390 h1        1 MOL      0.025700
    148 N13         4.6930    2.2600    0.2220 n         1 MOL      0.029226
    149 C50         3.8320    2.4220    1.3600 c3        1 MOL     -0.440218
    150 C51         4.5420    1.8980    2.6160 c         1 MOL      0.552568
    151 O21         4.4450    2.4940    3.7000 o         1 MOL     -0.563617
    152 C52         2.5210    1.7850    1.0800 c3        1 MOL      0.430657
    153 C53         1.7350    2.2310   -0.1310 c3        1 MOL     -0.239288
    154 C54         0.4960    1.3360   -0.2980 c         1 MOL      0.811456
    155 O22         0.5600    0.4410   -1.1580 o         1 MOL     -0.757198
    156 O23        -0.5770    1.4440    0.3240 o         1 MOL     -0.757198
    157 H67         4.5960    1.4410   -0.3580 hn        1 MOL      0.196432
    158 H68         3.6610    3.4970    1.4260 h1        1 MOL      0.171640
    159 H69         1.9060    1.7830    1.9860 hc        1 MOL     -0.019329
    160 H70         2.8010    0.7460    0.8950 hc        1 MOL     -0.019329
    161 H71         2.3550    2.0390   -1.0140 hc        1 MOL     -0.000493
    162 H72         1.5650    3.2990   -0.0360 hc        1 MOL     -0.000493
    163 N14         5.2370    0.7740    2.5490 n         1 MOL     -0.008145
    164 C55         6.0940    0.2460    3.5910 c3        1 MOL     -0.450082
    165 H73         6.1270   -0.8410    3.5170 h1        1 MOL      0.141056
    166 H74         7.1000    0.6480    3.4730 h1        1 MOL      0.141056
    167 H75         5.6990    0.5320    4.5650 h1        1 MOL      0.141056
    168 H76         5.0230    0.1120    1.8190 hn        1 MOL      0.078476
    169 Ca1        -2.0180   -0.1090   -1.2550 Ca        1 MOL      1.593253
    170 O24        -1.2750   -1.0360   -3.7680 oh        1 MOL     -0.750335
    171 H77        -0.4010   -1.3740   -3.9600 ho        1 MOL      0.361419
    172 H78        -1.2890   -0.1810   -4.1840 ho        1 MOL      0.361419
    173 O25        -0.8430   -2.6540   -1.4540 oh        1 MOL     -0.750335
    174 H79        -1.4220   -3.3620   -1.1690 ho        1 MOL      0.361419
    175 H80        -0.2580   -3.0710   -2.0820 ho        1 MOL      0.361419
@<TRIPOS>BOND
     1    1    2 1   
     2    1    4 1   
     3    1    5 1   
     4    1    6 1   
     5    2    3 2   
     6    2    7 1   
     7    7    8 1   
     8    7   15 1   
     9    8    9 1   
    10    8   11 1   
    11    8   16 1   
    12    9   10 2   
    13    9   19 1   
    14   11   12 1   
    15   11   17 1   
    16   11   18 1   
    17   12   13 1   
    18   12   14 1   
    19   19   20 1   
    20   19   24 1   
    21   20   21 1   
    22   20   23 1   
    23   20   25 1   
    24   21   22 2   
    25   21   29 1   
    26   23   26 1   
    27   23   27 1   
    28   23   28 1   
    29   29   30 1   
    30   29   37 1   
    31   30   31 1   
    32   30   33 1   
    33   30   38 1   
    34   31   32 2   
    35   31   41 1   
    36   33   34 1   
    37   33   39 1   
    38   33   40 1   
    39   34   35 1   
    40   34   36 1   
    41   41   42 1   
    42   41   45 1   
    43   42   43 1   
    44   42   46 1   
    45   42   47 1   
    46   43   44 2   
    47   43   48 1   
    48   48   49 1   
    49   48   56 1   
    50   49   50 1   
    51   49   52 1   
    52   49   57 1   
    53   50   51 2   
    54   50   62 1   
    55   52   53 1   
    56   52   58 1   
    57   52   59 1   
    58   53   54 1   
    59   53   55 2   
    60   54   60 1   
    61   54   61 1   
    62   62   63 1   
    63   62   66 1   
    64   63   64 1   
    65   63   67 1   
    66   63   68 1   
    67   64   65 2   
    68   64   69 1   
    69   69   70 1   
    70   69   76 1   
    71   70   71 1   
    72   70   73 1   
    73   70   77 1   
    74   71   72 2   
    75   71   83 1   
    76   73   74 1   
    77   73   75 1   
    78   73   78 1   
    79   74   80 1   
    80   74   81 1   
    81   74   82 1   
    82   75   79 1   
    83   83   84 1   
    84   83   91 1   
    85   84   85 1   
    86   84   87 1   
    87   84   92 1   
    88   85   86 2   
    89   85  102 1   
    90   87   88 1   
    91   87   89 1   
    92   87   93 1   
    93   88   90 1   
    94   88   94 1   
    95   88   95 1   
    96   89   96 1   
    97   89   97 1   
    98   89   98 1   
    99   90   99 1   
   100   90  100 1   
   101   90  101 1   
   102  102  103 1   
   103  102  110 1   
   104  103  104 1   
   105  103  106 1   
   106  103  111 1   
   107  104  105 2   
   108  104  114 1   
   109  106  107 1   
   110  106  112 1   
   111  106  113 1   
   112  107  108 1   
   113  107  109 1   
   114  114  115 1   
   115  114  125 1   
   116  115  116 1   
   117  115  118 1   
   118  115  126 1   
   119  116  117 2   
   120  116  134 1   
   121  118  119 1   
   122  118  127 1   
   123  118  128 1   
   124  119  120 ar  
   125  119  121 ar  
   126  120  122 ar  
   127  120  129 1   
   128  121  123 ar  
   129  121  130 1   
   130  122  124 ar  
   131  122  131 1   
   132  123  124 ar  
   133  123  132 1   
   134  124  133 1   
   135  134  135 1   
   136  134  140 1   
   137  135  136 1   
   138  135  138 1   
   139  135  141 1   
   140  136  137 2   
   141  136  148 1   
   142  138  139 1   
   143  138  142 1   
   144  138  143 1   
   145  139  140 1   
   146  139  144 1   
   147  139  145 1   
   148  140  146 1   
   149  140  147 1   
   150  148  149 1   
   151  148  157 1   
   152  149  150 1   
   153  149  152 1   
   154  149  158 1   
   155  150  151 2   
   156  150  163 1   
   157  152  153 1   
   158  152  159 1   
   159  152  160 1   
   160  153  154 1   
   161  153  161 1   
   162  153  162 1   
   163  154  155 1   
   164  154  156 1   
   165  163  164 1   
   166  163  168 1   
   167  164  165 1   
   168  164  166 1   
   169  164  167 1   
   170  170  171 1   
   171  170  172 1   
   172  173  174 1   
   173  173  175 1   
@<TRIPOS>SUBSTRUCTURE
     1 MOL         1 TEMP              0 ****  ****    0 ROOT
