@<TRIPOS>MOLECULE
MOL
  183   181     1     0     0
SMALL
resp


@<TRIPOS>ATOM
      1 C1          0.6120    2.4180   -6.2920 c3        1 MOL     -0.216757
      2 C2          0.7970    2.2050   -4.7240 c         1 MOL      0.690639
      3 O1         -0.0230    2.6900   -3.9500 o         1 MOL     -0.557787
      4 H1          1.4640    2.9720   -6.6870 hc        1 MOL      0.047433
      5 H2          0.5500    1.4480   -6.7870 hc        1 MOL      0.047433
      6 H3         -0.3040    2.9800   -6.4780 hc        1 MOL      0.047433
      7 N1          1.9190    1.6590   -4.2260 n         1 MOL     -0.621582
      8 C3          2.4450    1.7590   -2.8500 c3        1 MOL      0.113296
      9 C4          2.8290    3.2150   -2.4330 c         1 MOL      0.730782
     10 O2          3.3700    3.9970   -3.2440 o         1 MOL     -0.620323
     11 C5          3.6840    0.8210   -2.8160 c3        1 MOL     -0.366763
     12 C6          4.2840    0.5570   -1.4670 c         1 MOL      0.958936
     13 O3          5.4680    0.1710   -1.4890 o         1 MOL     -0.762426
     14 O4          3.6680    0.8680   -0.4180 o         1 MOL     -0.762426
     15 H4          2.4300    1.1480   -4.9220 hn        1 MOL      0.298276
     16 H5          1.5950    1.4830   -2.2290 h1        1 MOL      0.064464
     17 H6          4.4210    1.2990   -3.4550 hc        1 MOL      0.085211
     18 H7          3.3970   -0.1440   -3.2370 hc        1 MOL      0.085211
     19 N2          2.7050    3.4870   -1.1490 n         1 MOL     -0.576660
     20 C7          2.8090    4.8270   -0.4980 c3        1 MOL      0.000223
     21 C8          3.6700    4.7740    0.7460 c         1 MOL      0.535255
     22 O5          3.8560    5.8540    1.3220 o         1 MOL     -0.568445
     23 C9          1.3650    5.4450   -0.2410 c3        1 MOL      0.240986
     24 C10         0.4160    5.3290   -1.4680 c3        1 MOL      0.242080
     25 C11         1.4710    6.9290    0.1460 c3        1 MOL     -0.259044
     26 C12        -1.0830    5.6530   -1.2060 c3        1 MOL     -0.094625
     27 H8          2.4450    2.7640   -0.4910 hn        1 MOL      0.329418
     28 H9          3.3510    5.5300   -1.1310 h1        1 MOL      0.066022
     29 H10         0.9500    4.8820    0.5920 hc        1 MOL      0.019624
     30 H11         0.5080    4.3020   -1.8000 hc        1 MOL     -0.074011
     31 H12         0.8020    5.9670   -2.2700 hc        1 MOL     -0.074011
     32 H13         2.1770    7.4000   -0.5320 hc        1 MOL      0.031468
     33 H14         0.4920    7.4180    0.0650 hc        1 MOL      0.031468
     34 H15         1.7700    7.0070    1.1910 hc        1 MOL      0.031468
     35 H16        -1.3220    5.4170   -0.1630 hc        1 MOL      0.002699
     36 H17        -1.1900    6.7380   -1.2810 hc        1 MOL      0.002699
     37 H18        -1.7480    5.1520   -1.9160 hc        1 MOL      0.002699
     38 N3          4.1450    3.5930    1.2010 n         1 MOL     -0.362214
     39 C13         5.0530    3.3720    2.2600 c3        1 MOL      0.028094
     40 C14         6.1700    2.3620    1.9470 c         1 MOL      0.560821
     41 O6          6.9000    1.9820    2.8980 o         1 MOL     -0.554631
     42 C15         4.3440    3.2060    3.5910 c3        1 MOL     -0.210401
     43 C16         3.3130    2.0670    3.7460 c         1 MOL      0.762409
     44 O7          2.6760    1.9260    4.7960 o         1 MOL     -0.703266
     45 O8          3.2460    1.1930    2.8410 o         1 MOL     -0.703266
     46 H19         3.7990    2.7700    0.7290 hn        1 MOL      0.178106
     47 H20         5.6480    4.2720    2.4420 h1        1 MOL      0.070589
     48 H21         3.8640    4.1820    3.7090 hc        1 MOL      0.054887
     49 H22         5.1080    3.2100    4.3600 hc        1 MOL      0.054887
     50 N4          6.3700    2.1280    0.6600 n         1 MOL     -0.393246
     51 C17         7.5710    1.6880    0.0310 c3        1 MOL     -0.310012
     52 C18         8.0510    0.2080    0.1640 c         1 MOL      0.557326
     53 O9          9.0240   -0.2200   -0.4360 o         1 MOL     -0.605135
     54 H23         5.5750    2.2440    0.0380 hn        1 MOL      0.292700
     55 H24         8.4240    2.2850    0.3650 h1        1 MOL      0.142341
     56 H25         7.5050    1.8160   -1.0510 h1        1 MOL      0.142341
     57 N5          7.2870   -0.5640    0.9340 n         1 MOL     -0.238796
     58 C19         7.5220   -1.9610    1.1800 c3        1 MOL     -0.013548
     59 C20         7.5050   -2.9030   -0.0890 c         1 MOL      0.523017
     60 O10         8.1760   -3.9430   -0.0590 o         1 MOL     -0.598895
     61 C21         6.5680   -2.4740    2.2720 c3        1 MOL     -0.214985
     62 C22         5.1290   -2.1090    2.0370 c         1 MOL      0.901141
     63 O11         4.3400   -2.2950    2.9180 o         1 MOL     -0.773355
     64 O12         4.7670   -1.6980    0.9490 o         1 MOL     -0.773355
     65 H26         6.3640   -0.2070    1.1130 hn        1 MOL      0.177416
     66 H27         8.5310   -2.0160    1.5950 h1        1 MOL      0.065661
     67 H28         6.7990   -2.0060    3.2340 hc        1 MOL      0.048385
     68 H29         6.6970   -3.5540    2.3500 hc        1 MOL      0.048385
     69 N6          6.8140   -2.5310   -1.1690 n         1 MOL     -0.242085
     70 C23         6.5900   -3.4200   -2.3560 c3        1 MOL     -0.086693
     71 C24         5.1760   -3.9850   -2.4140 c         1 MOL      0.486687
     72 O13         4.8720   -4.7580   -3.3580 o         1 MOL     -0.597757
     73 H30         6.2360   -1.6980   -1.1340 hn        1 MOL      0.283275
     74 H31         7.3900   -4.1580   -2.3770 h1        1 MOL      0.077714
     75 H32         6.7600   -2.8680   -3.2700 h1        1 MOL      0.077714
     76 N7          4.2840   -3.6870   -1.4770 n         1 MOL     -0.167857
     77 C25         2.9110   -4.1610   -1.5070 c3        1 MOL      0.024191
     78 C26         1.8260   -2.9550   -1.4210 c         1 MOL      0.664536
     79 O14         2.1450   -1.8750   -0.9060 o         1 MOL     -0.663403
     80 C27         2.6090   -5.3150   -0.6750 c3        1 MOL     -0.170481
     81 C28         2.7490   -5.0700    0.8720 c3        1 MOL     -0.118072
     82 C29         1.5750   -4.3530    1.5580 c         1 MOL      0.533129
     83 N8          0.4530   -5.0510    1.7150 n         1 MOL     -0.743375
     84 O15         1.6540   -3.1780    1.8710 o         1 MOL     -0.494212
     85 H33         4.6030   -2.9970   -0.8140 hn        1 MOL      0.104190
     86 H34         2.8010   -4.4990   -2.5380 h1        1 MOL      0.024938
     87 H35         3.3180   -6.0590   -1.0270 hc        1 MOL      0.063750
     88 H36         1.5910   -5.6160   -0.9290 hc        1 MOL      0.063750
     89 H37         3.6460   -4.5560    1.2180 hc        1 MOL      0.058514
     90 H38         2.8890   -6.1040    1.2000 hc        1 MOL      0.058514
     91 H39         0.3400   -6.0560    1.6970 hn        1 MOL      0.344836
     92 H40        -0.2580   -4.5370    2.2250 hn        1 MOL      0.344836
     93 N9          0.6230   -3.1900   -2.0360 n         1 MOL     -0.453873
     94 C30        -0.4600   -2.2290   -2.2330 c3        1 MOL      0.016905
     95 C31        -1.6510   -2.7220   -1.4180 c         1 MOL      0.306462
     96 O16        -2.3290   -3.6560   -1.8870 o         1 MOL     -0.564898
     97 C32        -0.8090   -2.0960   -3.7610 c3        1 MOL      0.224712
     98 C33        -1.9720   -1.2260   -4.1150 c3        1 MOL     -0.302687
     99 C34         0.4250   -1.7320   -4.5600 c3        1 MOL     -0.302687
    100 H41         0.4020   -4.0950   -2.4510 hn        1 MOL      0.297659
    101 H42        -0.2360   -1.1770   -2.0240 h1        1 MOL      0.193406
    102 H43        -1.0120   -3.0970   -4.1380 hc        1 MOL     -0.020011
    103 H44        -2.1930   -1.3350   -5.1810 hc        1 MOL      0.061722
    104 H45        -2.8920   -1.5460   -3.6180 hc        1 MOL      0.061722
    105 H46        -1.8480   -0.1660   -3.9250 hc        1 MOL      0.061722
    106 H47         1.2140   -2.4770   -4.5560 hc        1 MOL      0.061722
    107 H48         0.0360   -1.5400   -5.5620 hc        1 MOL      0.061722
    108 H49         0.9430   -0.8770   -4.1220 hc        1 MOL      0.061722
    109 N10        -1.9400   -2.1250   -0.2870 n         1 MOL     -0.023190
    110 C35        -3.1080   -2.4840    0.4560 c3        1 MOL      0.051655
    111 C36        -4.2840   -1.8370   -0.2950 c         1 MOL      0.362918
    112 O17        -4.1800   -0.7890   -0.8770 o         1 MOL     -0.201470
    113 C37        -2.8300   -1.9290    1.8790 c3        1 MOL     -0.254150
    114 C38        -1.7980   -2.7700    2.6940 c         1 MOL      0.594789
    115 N11        -0.8080   -2.1640    3.3320 n         1 MOL     -0.660030
    116 O18        -1.8680   -3.9760    2.7360 o         1 MOL     -0.581441
    117 H50        -1.3120   -1.4670    0.1550 hn        1 MOL      0.096577
    118 H51        -3.3140   -3.5510    0.4740 h1        1 MOL      0.046600
    119 H52        -3.8170   -1.7660    2.3110 hc        1 MOL      0.084858
    120 H53        -2.3850   -0.9480    1.7350 hc        1 MOL      0.084858
    121 H54        -0.7460   -1.1570    3.3120 hn        1 MOL      0.362947
    122 H55        -0.2990   -2.8630    3.8550 hn        1 MOL      0.362947
    123 N12        -5.4940   -2.3070   -0.0100 n         1 MOL     -0.498595
    124 C39        -6.7420   -1.6430   -0.3720 c3        1 MOL      0.100107
    125 C40        -6.7840   -0.1750    0.1050 c         1 MOL      0.616960
    126 O19        -7.0800    0.7230   -0.6830 o         1 MOL     -0.509022
    127 C41        -8.0030   -2.3790    0.1760 c3        1 MOL     -0.155156
    128 C42        -9.3720   -1.8900   -0.2800 ca        1 MOL      0.020263
    129 C43        -9.7040   -1.8080   -1.6310 ca        1 MOL     -0.157717
    130 C44       -10.2190   -1.3500    0.7040 ca        1 MOL     -0.157717
    131 C45       -10.9120   -1.2030   -1.9590 ca        1 MOL     -0.233383
    132 C46       -11.4760   -0.7940    0.3080 ca        1 MOL     -0.233383
    133 C47       -11.8240   -0.6950   -1.0210 ca        1 MOL      0.326621
    134 O20       -12.9750   -0.0510   -1.4170 oh        1 MOL     -0.516237
    135 H56        -5.5560   -3.1990    0.4660 hn        1 MOL      0.298857
    136 H57        -6.7690   -1.6510   -1.4580 h1        1 MOL      0.086898
    137 H58        -7.9880   -2.4230    1.2660 hc        1 MOL      0.070475
    138 H59        -7.9770   -3.4490    0.0190 hc        1 MOL      0.070475
    139 H60        -8.9980   -2.0390   -2.4180 ha        1 MOL      0.137812
    140 H61        -9.9610   -1.2680    1.7470 ha        1 MOL      0.137812
    141 H62       -11.1380   -1.1130   -3.0120 ha        1 MOL      0.131805
    142 H63       -12.1730   -0.3250    0.9800 ha        1 MOL      0.131805
    143 H64       -13.4670    0.3180   -0.6800 ho        1 MOL      0.367870
    144 N13        -6.2700    0.1260    1.3720 n         1 MOL     -0.513354
    145 C48        -5.9360    1.4440    1.9520 c3        1 MOL     -0.013405
    146 C49        -5.0820    2.3850    1.0460 c         1 MOL      0.324246
    147 O21        -5.2380    3.5380    1.1910 o         1 MOL     -0.515494
    148 C50        -5.3270    1.3530    3.3450 c3        1 MOL      0.157123
    149 C51        -6.0890    0.4880    4.3380 c3        1 MOL     -0.283125
    150 C52        -5.3380    0.5490    5.6770 c         1 MOL      0.741872
    151 O22        -4.1200    0.2420    5.7240 o         1 MOL     -0.734209
    152 O23        -5.9810    0.8200    6.7190 o         1 MOL     -0.734209
    153 H65        -6.1690   -0.6690    1.9890 hn        1 MOL      0.249904
    154 H66        -6.8930    1.9270    2.1190 h1        1 MOL      0.078311
    155 H67        -5.2190    2.3690    3.7480 hc        1 MOL      0.001272
    156 H68        -4.3560    0.8800    3.2590 hc        1 MOL      0.001272
    157 H69        -6.0600   -0.5400    4.0010 hc        1 MOL      0.023847
    158 H70        -7.1150    0.8250    4.4890 hc        1 MOL      0.023847
    159 N14        -4.3140    1.8020    0.1260 n         1 MOL      0.040315
    160 C53        -3.4280    2.4660   -0.7630 c3        1 MOL     -0.022990
    161 C54        -4.0380    2.5220   -2.2300 c         1 MOL      0.326657
    162 O24        -3.9700    3.4880   -2.9870 o         1 MOL     -0.524424
    163 C55        -2.0720    1.7810   -0.7180 c3        1 MOL      0.232522
    164 C56        -1.4160    1.9540    0.6730 c3        1 MOL     -0.046813
    165 C57        -0.1610    1.1170    0.8060 c         1 MOL      0.611321
    166 O25         0.9720    1.6870    0.8590 o         1 MOL     -0.718528
    167 O26        -0.1080   -0.1430    0.6970 o         1 MOL     -0.718528
    168 H71        -4.4130    0.7990    0.0750 hn        1 MOL      0.068341
    169 H72        -3.2930    3.5000   -0.4470 h1        1 MOL      0.069166
    170 H73        -1.4300    2.3310   -1.4120 hc        1 MOL     -0.073634
    171 H74        -2.0560    0.7230   -0.9560 hc        1 MOL     -0.073634
    172 H75        -2.1010    1.5050    1.3920 hc        1 MOL     -0.018221
    173 H76        -1.2730    3.0100    0.8950 hc        1 MOL     -0.018221
    174 N15        -4.7800    1.4620   -2.5460 n         1 MOL      0.030647
    175 C58        -5.6260    1.2640   -3.6620 c3        1 MOL     -0.169428
    176 H77        -5.3070    0.3750   -4.2050 h1        1 MOL      0.061201
    177 H78        -6.6520    1.1320   -3.3220 h1        1 MOL      0.061201
    178 H79        -5.5690    2.1310   -4.3200 h1        1 MOL      0.061201
    179 H80        -4.8190    0.6780   -1.9010 hn        1 MOL     -0.037542
    180 Ca1         2.3990   -0.6030    1.3140 Ca        1 MOL      1.736235
    181 O27         1.0330   -0.0560    3.8020 oh        1 MOL     -0.880497
    182 H81         0.2910    0.2410    4.3260 ho        1 MOL      0.417810
    183 H82         1.6560    0.6700    3.8440 ho        1 MOL      0.417810
@<TRIPOS>BOND
     1    1    2 1   
     2    1    4 1   
     3    1    5 1   
     4    1    6 1   
     5    2    3 2   
     6    2    7 1   
     7    7    8 1   
     8    7   15 1   
     9    8    9 1   
    10    8   11 1   
    11    8   16 1   
    12    9   10 2   
    13    9   19 1   
    14   11   12 1   
    15   11   17 1   
    16   11   18 1   
    17   12   13 1   
    18   12   14 1   
    19   19   20 1   
    20   19   27 1   
    21   20   21 1   
    22   20   23 1   
    23   20   28 1   
    24   21   22 2   
    25   21   38 1   
    26   23   24 1   
    27   23   25 1   
    28   23   29 1   
    29   24   26 1   
    30   24   30 1   
    31   24   31 1   
    32   25   32 1   
    33   25   33 1   
    34   25   34 1   
    35   26   35 1   
    36   26   36 1   
    37   26   37 1   
    38   38   39 1   
    39   38   46 1   
    40   39   40 1   
    41   39   42 1   
    42   39   47 1   
    43   40   41 2   
    44   40   50 1   
    45   42   43 1   
    46   42   48 1   
    47   42   49 1   
    48   43   44 1   
    49   43   45 1   
    50   50   51 1   
    51   50   54 1   
    52   51   52 1   
    53   51   55 1   
    54   51   56 1   
    55   52   53 2   
    56   52   57 1   
    57   57   58 1   
    58   57   65 1   
    59   58   59 1   
    60   58   61 1   
    61   58   66 1   
    62   59   60 2   
    63   59   69 1   
    64   61   62 1   
    65   61   67 1   
    66   61   68 1   
    67   62   63 1   
    68   62   64 1   
    69   69   70 1   
    70   69   73 1   
    71   70   71 1   
    72   70   74 1   
    73   70   75 1   
    74   71   72 2   
    75   71   76 1   
    76   76   77 1   
    77   76   85 1   
    78   77   78 1   
    79   77   80 1   
    80   77   86 1   
    81   78   79 2   
    82   78   93 1   
    83   80   81 1   
    84   80   87 1   
    85   80   88 1   
    86   81   82 1   
    87   81   89 1   
    88   81   90 1   
    89   82   83 1   
    90   82   84 2   
    91   83   91 1   
    92   83   92 1   
    93   93   94 1   
    94   93  100 1   
    95   94   95 1   
    96   94   97 1   
    97   94  101 1   
    98   95   96 2   
    99   95  109 1   
   100   97   98 1   
   101   97   99 1   
   102   97  102 1   
   103   98  103 1   
   104   98  104 1   
   105   98  105 1   
   106   99  106 1   
   107   99  107 1   
   108   99  108 1   
   109  109  110 1   
   110  109  117 1   
   111  110  111 1   
   112  110  113 1   
   113  110  118 1   
   114  111  112 2   
   115  111  123 1   
   116  113  114 1   
   117  113  119 1   
   118  113  120 1   
   119  114  115 1   
   120  114  116 2   
   121  115  121 1   
   122  115  122 1   
   123  123  124 1   
   124  123  135 1   
   125  124  125 1   
   126  124  127 1   
   127  124  136 1   
   128  125  126 2   
   129  125  144 1   
   130  127  128 1   
   131  127  137 1   
   132  127  138 1   
   133  128  129 ar  
   134  128  130 ar  
   135  129  131 ar  
   136  129  139 1   
   137  130  132 ar  
   138  130  140 1   
   139  131  133 ar  
   140  131  141 1   
   141  132  133 ar  
   142  132  142 1   
   143  133  134 1   
   144  134  143 1   
   145  144  145 1   
   146  144  153 1   
   147  145  146 1   
   148  145  148 1   
   149  145  154 1   
   150  146  147 2   
   151  146  159 1   
   152  148  149 1   
   153  148  155 1   
   154  148  156 1   
   155  149  150 1   
   156  149  157 1   
   157  149  158 1   
   158  150  151 1   
   159  150  152 1   
   160  159  160 1   
   161  159  168 1   
   162  160  161 1   
   163  160  163 1   
   164  160  169 1   
   165  161  162 2   
   166  161  174 1   
   167  163  164 1   
   168  163  170 1   
   169  163  171 1   
   170  164  165 1   
   171  164  172 1   
   172  164  173 1   
   173  165  166 1   
   174  165  167 1   
   175  174  175 1   
   176  174  179 1   
   177  175  176 1   
   178  175  177 1   
   179  175  178 1   
   180  181  182 1   
   181  181  183 1   
@<TRIPOS>SUBSTRUCTURE
     1 MOL         1 TEMP              0 ****  ****    0 ROOT
