@<TRIPOS>MOLECULE
MOL
  189   185     1     0     0
SMALL
resp


@<TRIPOS>ATOM
      1 C1         -0.0300    3.9070   -4.1220 c3        1 MOL     -0.451236
      2 C2          0.7210    3.3880   -2.8640 c         1 MOL      0.713009
      3 O1          0.1040    3.4900   -1.7960 o         1 MOL     -0.583600
      4 H1          0.3790    3.4300   -5.0120 hc        1 MOL      0.113856
      5 H2         -1.0900    3.6670   -4.0380 hc        1 MOL      0.113856
      6 H3          0.0930    4.9870   -4.2000 hc        1 MOL      0.113856
      7 N1          1.9190    2.8270   -2.9040 n         1 MOL     -0.592501
      8 C3          2.6270    2.0480   -1.9400 c3        1 MOL      0.167517
      9 C4          3.3470    3.0310   -0.9810 c         1 MOL      0.411122
     10 O2          4.5820    3.0280   -0.9890 o         1 MOL     -0.424389
     11 C5          3.5730    1.0400   -2.6330 c3        1 MOL     -0.055245
     12 C6          4.1970    0.1170   -1.5750 c         1 MOL      0.557275
     13 O3          5.2110   -0.5780   -1.8860 o         1 MOL     -0.649851
     14 O4          3.6490    0.0780   -0.4700 o         1 MOL     -0.649851
     15 H4          2.4240    2.9070   -3.7750 hn        1 MOL      0.292514
     16 H5          1.9160    1.4200   -1.3900 h1        1 MOL      0.048404
     17 H6          4.3010    1.5300   -3.2750 hc        1 MOL      0.033620
     18 H7          3.0270    0.3880   -3.3060 hc        1 MOL      0.033620
     19 N2          2.6060    3.9360   -0.2830 n         1 MOL     -0.305537
     20 C7          3.1540    5.0940    0.3890 c3        1 MOL     -0.113881
     21 C8          4.0870    4.7730    1.5340 c         1 MOL      0.603653
     22 O5          4.7910    5.6910    2.0240 o         1 MOL     -0.596303
     23 C9          2.0310    6.0850    0.8070 c3        1 MOL     -0.125004
     24 C10         1.5190    6.7660   -0.5220 c3        1 MOL      0.219219
     25 C11         0.3280    7.7020   -0.2180 c3        1 MOL     -0.110890
     26 C12        -0.1890    8.5980   -1.3670 c3        1 MOL     -0.021986
     27 N3         -1.0790    7.9350   -2.3490 n4        1 MOL     -0.298937
     28 H8          1.5970    3.9110   -0.4410 hn        1 MOL      0.315828
     29 H9          3.8670    5.5650   -0.2890 h1        1 MOL      0.096874
     30 H10         2.3810    6.8350    1.5250 hc        1 MOL      0.058522
     31 H11         1.1860    5.5360    1.2250 hc        1 MOL      0.058522
     32 H12         1.1530    6.0090   -1.2180 hc        1 MOL     -0.052799
     33 H13         2.3190    7.3140   -1.0290 hc        1 MOL     -0.052799
     34 H14         0.7090    8.4280    0.5070 hc        1 MOL      0.070226
     35 H15        -0.5030    7.2170    0.2930 hc        1 MOL      0.070226
     36 H16         0.6000    8.9850   -2.0220 hx        1 MOL      0.090697
     37 H17        -0.6950    9.4180   -0.8550 hx        1 MOL      0.090697
     38 H18        -1.6660    7.2870   -1.8490 hn        1 MOL      0.316246
     39 H19        -1.6670    8.6360   -2.7720 hn        1 MOL      0.316246
     40 H20        -0.5750    7.4640   -3.0860 hn        1 MOL      0.316246
     41 N4          4.1080    3.5390    1.9790 n         1 MOL     -0.297935
     42 C13         5.0560    3.0420    2.9550 c3        1 MOL      0.022755
     43 C14         6.0630    2.0630    2.2620 c         1 MOL      0.345642
     44 O6          7.0160    1.6330    2.9060 o         1 MOL     -0.533218
     45 C15         4.3110    2.4810    4.1640 c3        1 MOL     -0.205262
     46 C16         3.2370    1.4660    3.8850 c         1 MOL      0.711447
     47 O7          2.4960    1.1580    4.8370 o         1 MOL     -0.666492
     48 O8          3.1980    0.7500    2.8380 o         1 MOL     -0.666492
     49 H21         3.6570    2.8160    1.4480 hn        1 MOL      0.161667
     50 H22         5.6290    3.8630    3.3710 h1        1 MOL      0.104429
     51 H23         3.8570    3.2860    4.7480 hc        1 MOL      0.077341
     52 H24         5.0340    1.9940    4.8180 hc        1 MOL      0.077341
     53 N5          5.8930    1.6010    1.0010 n         1 MOL      0.195536
     54 C17         7.0520    1.0230    0.2890 c3        1 MOL     -0.156610
     55 C18         7.5270   -0.4060    0.6340 c         1 MOL      0.433410
     56 O9          8.7110   -0.7550    0.5300 o         1 MOL     -0.568190
     57 H25         5.1980    1.9810    0.3810 hn        1 MOL     -0.159651
     58 H26         7.8830    1.6990    0.4730 h1        1 MOL      0.089684
     59 H27         6.8880    0.9220   -0.7860 h1        1 MOL      0.089684
     60 N6          6.5500   -1.1840    1.0930 n         1 MOL     -0.084569
     61 C19         6.7010   -2.5310    1.5750 c3        1 MOL      0.035019
     62 C20         6.5240   -3.5270    0.4660 c         1 MOL      0.358465
     63 O10         6.6510   -4.7240    0.6290 o         1 MOL     -0.529008
     64 C21         5.6590   -2.8520    2.6050 c3        1 MOL     -0.379419
     65 C22         4.2350   -2.5700    2.1720 c         1 MOL      0.817537
     66 O11         3.3750   -2.3470    3.0660 o         1 MOL     -0.694312
     67 O12         3.8830   -2.6450    0.9440 o         1 MOL     -0.694312
     68 H28         5.6870   -0.7080    1.3140 hn        1 MOL      0.083560
     69 H29         7.7010   -2.6300    1.9810 h1        1 MOL      0.102014
     70 H30         6.0260   -2.1590    3.3650 hc        1 MOL      0.114489
     71 H31         5.7700   -3.9170    2.8140 hc        1 MOL      0.114489
     72 N7          6.2280   -3.1050   -0.7410 n         1 MOL     -0.152605
     73 C23         6.1630   -4.0240   -1.8420 c3        1 MOL     -0.206088
     74 C24         4.7270   -4.4080   -2.2960 c         1 MOL      0.583250
     75 O13         4.5400   -5.1680   -3.2580 o         1 MOL     -0.603121
     76 H32         6.1620   -2.1130   -0.9290 hn        1 MOL      0.250303
     77 H33         6.7670   -4.9130   -1.6460 h1        1 MOL      0.098440
     78 H34         6.4610   -3.5110   -2.7570 h1        1 MOL      0.098440
     79 N8          3.7060   -3.9700   -1.5580 n         1 MOL     -0.179392
     80 C25         2.2900   -4.5480   -1.7160 c3        1 MOL     -0.457496
     81 C26         1.2730   -3.4190   -1.6330 c         1 MOL      0.639199
     82 O14         1.4960   -2.4310   -0.8560 o         1 MOL     -0.672236
     83 C27         1.9400   -5.6150   -0.6810 c3        1 MOL      0.593800
     84 C28         2.6240   -6.9320   -1.2100 c3        1 MOL     -0.393840
     85 O15         2.4060   -5.2540    0.5910 oh        1 MOL     -0.668526
     86 H35         3.8560   -3.4320   -0.7170 hn        1 MOL      0.264574
     87 H36         2.1870   -5.0000   -2.6960 h1        1 MOL      0.174796
     88 H37         0.8900   -5.8690   -0.5570 h1        1 MOL     -0.036738
     89 H38         2.6670   -4.3390    0.6640 ho        1 MOL      0.413374
     90 H39         3.6950   -7.0360   -1.0520 hc        1 MOL      0.094797
     91 H40         2.1180   -7.6840   -0.5980 hc        1 MOL      0.094797
     92 H41         2.2980   -7.1210   -2.2230 hc        1 MOL      0.094797
     93 N9          0.2260   -3.4430   -2.3940 n         1 MOL     -0.539402
     94 C29        -0.8040   -2.3700   -2.4560 c3        1 MOL     -0.006231
     95 C30        -2.0810   -2.8690   -1.8200 c         1 MOL      0.732631
     96 O16        -2.4590   -3.9330   -2.1260 o         1 MOL     -0.600760
     97 C31        -1.1970   -1.9560   -3.9490 c3        1 MOL      0.230348
     98 C32         0.0730   -1.3940   -4.6150 c3        1 MOL     -0.003698
     99 C33        -2.2460   -0.8140   -3.8670 c3        1 MOL     -0.296582
    100 C34        -0.0840   -1.1590   -6.1660 c3        1 MOL     -0.298975
    101 H42         0.3010   -4.1450   -3.1140 hn        1 MOL      0.291277
    102 H43        -0.4590   -1.4810   -1.9360 h1        1 MOL      0.064290
    103 H44        -1.6510   -2.8660   -4.3290 hc        1 MOL     -0.006983
    104 H45         0.8820   -2.1250   -4.5720 hc        1 MOL      0.049271
    105 H46         0.3330   -0.4330   -4.1750 hc        1 MOL      0.049271
    106 H47        -2.3460   -0.3930   -4.8730 hc        1 MOL      0.043254
    107 H48        -3.2790   -1.0390   -3.6390 hc        1 MOL      0.043254
    108 H49        -1.8740   -0.0380   -3.1970 hc        1 MOL      0.043254
    109 H50        -0.5330   -2.0600   -6.5770 hc        1 MOL      0.072916
    110 H51        -0.7570   -0.3090   -6.2360 hc        1 MOL      0.072916
    111 H52         0.9000   -0.9560   -6.5750 hc        1 MOL      0.072916
    112 N10        -2.6900   -2.0890   -0.9510 n         1 MOL     -0.550131
    113 C35        -3.9330   -2.4930   -0.2250 c3        1 MOL      0.031504
    114 C36        -5.1210   -1.8070   -0.9140 c         1 MOL      0.257908
    115 O17        -4.9890   -0.7570   -1.5550 o         1 MOL     -0.177953
    116 C37        -3.9370   -2.1320    1.2660 c3        1 MOL      0.362755
    117 C38        -3.0300   -3.0250    2.1370 c3        1 MOL     -0.476450
    118 O18        -3.5700   -0.7290    1.4110 oh        1 MOL     -0.566865
    119 H53        -2.2220   -1.2190   -0.7360 hn        1 MOL      0.422285
    120 H54        -3.9930   -3.5840   -0.3270 h1        1 MOL      0.088637
    121 H55        -4.9500   -2.3260    1.6180 h1        1 MOL     -0.025007
    122 H56        -2.6310   -0.6170    1.2790 ho        1 MOL      0.393074
    123 H57        -3.2390   -2.7810    3.1740 hc        1 MOL      0.142460
    124 H58        -3.3400   -4.0350    1.8800 hc        1 MOL      0.142460
    125 H59        -1.9900   -2.8030    1.8860 hc        1 MOL      0.142460
    126 N11        -6.2900   -2.4070   -0.6840 n         1 MOL     -0.365544
    127 C39        -7.5490   -1.7340   -0.8200 c3        1 MOL     -0.051814
    128 C40        -7.4720   -0.3230   -0.2180 c         1 MOL      0.162586
    129 O19        -8.0360    0.5520   -0.7890 o         1 MOL     -0.480511
    130 C41        -8.5870   -2.4220    0.0740 c3        1 MOL      0.284528
    131 C42        -9.2170   -3.6570   -0.5460 c3        1 MOL     -0.439983
    132 O20        -7.9870   -2.6400    1.3640 oh        1 MOL     -0.538792
    133 H60        -6.2600   -3.2080   -0.0830 hn        1 MOL      0.276834
    134 H61        -7.6980   -1.6640   -1.9050 h1        1 MOL      0.151652
    135 H62        -9.4270   -1.7390    0.2120 h1        1 MOL      0.045100
    136 H63        -8.7550   -2.7550    1.9250 ho        1 MOL      0.332929
    137 H64        -9.8630   -4.0390    0.2360 hc        1 MOL      0.125988
    138 H65        -9.8650   -3.3680   -1.3760 hc        1 MOL      0.125988
    139 H66        -8.4910   -4.4560   -0.7040 hc        1 MOL      0.125988
    140 N12        -6.8850   -0.1080    0.9100 n         1 MOL      0.134089
    141 C43        -6.6710    1.1740    1.5950 c3        1 MOL     -0.022225
    142 C44        -5.8550    2.1250    0.7300 c         1 MOL      0.348085
    143 O21        -6.1870    3.2750    0.6080 o         1 MOL     -0.499342
    144 C45        -6.1560    0.9480    2.9820 c3        1 MOL     -0.362334
    145 C46        -6.5520   -0.2840    3.8510 c3        1 MOL     -0.018809
    146 C47        -8.0530   -0.2120    4.0980 c3        1 MOL      0.481634
    147 C48        -8.5210   -1.4290    4.8350 c3        1 MOL     -0.145552
    148 N13        -9.9730   -1.4100    4.8840 n4        1 MOL     -0.238507
    149 H67        -6.3650   -0.9170    1.2220 hn        1 MOL      0.114480
    150 H68        -7.6570    1.6270    1.6800 h1        1 MOL      0.054299
    151 H69        -6.3160    1.8430    3.5780 hc        1 MOL      0.144817
    152 H70        -5.0700    0.7910    2.9800 hc        1 MOL      0.144817
    153 H71        -6.0120   -0.2490    4.7980 hc        1 MOL      0.008370
    154 H72        -6.2880   -1.2080    3.3340 hc        1 MOL      0.008370
    155 H73        -8.5720   -0.3190    3.1450 hc        1 MOL     -0.110687
    156 H74        -8.3220    0.7220    4.5870 hc        1 MOL     -0.110687
    157 H75        -8.0840   -1.3870    5.8340 hx        1 MOL      0.091032
    158 H76        -8.1250   -2.3490    4.3820 hx        1 MOL      0.091032
    159 H77       -10.3780   -1.3320    3.9640 hn        1 MOL      0.262935
    160 H78       -10.3470   -2.2930    5.1730 hn        1 MOL      0.262935
    161 H79       -10.3820   -0.7570    5.5380 hn        1 MOL      0.262935
    162 N14        -4.8000    1.5980    0.1280 n         1 MOL      0.099766
    163 C49        -3.9620    2.4420   -0.7340 c3        1 MOL     -0.069374
    164 C50        -4.4580    2.8140   -2.1810 c         1 MOL      0.339527
    165 O22        -4.4570    4.0010   -2.6780 o         1 MOL     -0.565150
    166 C51        -2.6100    1.7800   -0.8980 c3        1 MOL      0.048417
    167 C52        -1.7450    2.0680    0.3250 c3        1 MOL     -0.071422
    168 C53        -0.7080    0.9550    0.6070 c         1 MOL      0.911545
    169 O23        -0.9570   -0.2510    0.5200 o         1 MOL     -0.873570
    170 O24         0.4530    1.2910    0.9840 o         1 MOL     -0.873570
    171 H80        -4.6090    0.6050    0.2090 hn        1 MOL     -0.126481
    172 H81        -3.7340    3.4180   -0.3040 h1        1 MOL      0.072892
    173 H82        -2.1050    2.1340   -1.8040 hc        1 MOL      0.010596
    174 H83        -2.7190    0.7060   -1.0490 hc        1 MOL      0.010596
    175 H84        -2.3830    2.1610    1.2020 hc        1 MOL     -0.010088
    176 H85        -1.2730    3.0370    0.1450 hc        1 MOL     -0.010088
    177 N15        -5.1360    1.8400   -2.8230 n         1 MOL      0.008159
    178 C54        -5.9100    2.0270   -4.0610 c3        1 MOL     -0.180548
    179 H86        -5.2470    1.9300   -4.9210 h1        1 MOL      0.082240
    180 H87        -6.6920    1.2700   -4.1190 h1        1 MOL      0.082240
    181 H88        -6.3620    3.0190   -4.0610 h1        1 MOL      0.082240
    182 H89        -5.0360    0.9240   -2.4220 hn        1 MOL      0.044742
    183 Ca1         1.9050   -0.8120    1.2750 Ca        1 MOL      1.787667
    184 O25         0.8780   -3.1860    2.2620 oh        1 MOL     -0.828126
    185 H90         1.7360   -3.5060    2.5210 ho        1 MOL      0.383143
    186 H91         0.2800   -3.5570    2.9110 ho        1 MOL      0.383143
    187 O26         0.7840   -0.7020    3.7790 oh        1 MOL     -0.828126
    188 H92         1.4140   -0.0320    4.0380 ho        1 MOL      0.383143
    189 H93         0.0500   -0.6100    4.3840 ho        1 MOL      0.383143
@<TRIPOS>BOND
     1    1    2 1   
     2    1    4 1   
     3    1    5 1   
     4    1    6 1   
     5    2    3 2   
     6    2    7 1   
     7    7    8 1   
     8    7   15 1   
     9    8    9 1   
    10    8   11 1   
    11    8   16 1   
    12    9   10 2   
    13    9   19 1   
    14   11   12 1   
    15   11   17 1   
    16   11   18 1   
    17   12   13 1   
    18   12   14 1   
    19   19   20 1   
    20   19   28 1   
    21   20   21 1   
    22   20   23 1   
    23   20   29 1   
    24   21   22 2   
    25   21   41 1   
    26   23   24 1   
    27   23   30 1   
    28   23   31 1   
    29   24   25 1   
    30   24   32 1   
    31   24   33 1   
    32   25   26 1   
    33   25   34 1   
    34   25   35 1   
    35   26   27 1   
    36   26   36 1   
    37   26   37 1   
    38   27   38 1   
    39   27   39 1   
    40   27   40 1   
    41   41   42 1   
    42   41   49 1   
    43   42   43 1   
    44   42   45 1   
    45   42   50 1   
    46   43   44 2   
    47   43   53 1   
    48   45   46 1   
    49   45   51 1   
    50   45   52 1   
    51   46   47 1   
    52   46   48 1   
    53   53   54 1   
    54   53   57 1   
    55   54   55 1   
    56   54   58 1   
    57   54   59 1   
    58   55   56 2   
    59   55   60 1   
    60   60   61 1   
    61   60   68 1   
    62   61   62 1   
    63   61   64 1   
    64   61   69 1   
    65   62   63 2   
    66   62   72 1   
    67   64   65 1   
    68   64   70 1   
    69   64   71 1   
    70   65   66 1   
    71   65   67 1   
    72   72   73 1   
    73   72   76 1   
    74   73   74 1   
    75   73   77 1   
    76   73   78 1   
    77   74   75 2   
    78   74   79 1   
    79   79   80 1   
    80   79   86 1   
    81   80   81 1   
    82   80   83 1   
    83   80   87 1   
    84   81   82 2   
    85   81   93 1   
    86   83   84 1   
    87   83   85 1   
    88   83   88 1   
    89   84   90 1   
    90   84   91 1   
    91   84   92 1   
    92   85   89 1   
    93   93   94 1   
    94   93  101 1   
    95   94   95 1   
    96   94   97 1   
    97   94  102 1   
    98   95   96 2   
    99   95  112 1   
   100   97   98 1   
   101   97   99 1   
   102   97  103 1   
   103   98  100 1   
   104   98  104 1   
   105   98  105 1   
   106   99  106 1   
   107   99  107 1   
   108   99  108 1   
   109  100  109 1   
   110  100  110 1   
   111  100  111 1   
   112  112  113 1   
   113  112  119 1   
   114  113  114 1   
   115  113  116 1   
   116  113  120 1   
   117  114  115 2   
   118  114  126 1   
   119  116  117 1   
   120  116  118 1   
   121  116  121 1   
   122  117  123 1   
   123  117  124 1   
   124  117  125 1   
   125  118  122 1   
   126  126  127 1   
   127  126  133 1   
   128  127  128 1   
   129  127  130 1   
   130  127  134 1   
   131  128  129 2   
   132  128  140 1   
   133  130  131 1   
   134  130  132 1   
   135  130  135 1   
   136  131  137 1   
   137  131  138 1   
   138  131  139 1   
   139  132  136 1   
   140  140  141 1   
   141  140  149 1   
   142  141  142 1   
   143  141  144 1   
   144  141  150 1   
   145  142  143 2   
   146  142  162 1   
   147  144  145 1   
   148  144  151 1   
   149  144  152 1   
   150  145  146 1   
   151  145  153 1   
   152  145  154 1   
   153  146  147 1   
   154  146  155 1   
   155  146  156 1   
   156  147  148 1   
   157  147  157 1   
   158  147  158 1   
   159  148  159 1   
   160  148  160 1   
   161  148  161 1   
   162  162  163 1   
   163  162  171 1   
   164  163  164 1   
   165  163  166 1   
   166  163  172 1   
   167  164  165 2   
   168  164  177 1   
   169  166  167 1   
   170  166  173 1   
   171  166  174 1   
   172  167  168 1   
   173  167  175 1   
   174  167  176 1   
   175  168  169 1   
   176  168  170 1   
   177  177  178 1   
   178  177  182 1   
   179  178  179 1   
   180  178  180 1   
   181  178  181 1   
   182  184  185 1   
   183  184  186 1   
   184  187  188 1   
   185  187  189 1   
@<TRIPOS>SUBSTRUCTURE
     1 MOL         1 TEMP              0 ****  ****    0 ROOT
