@<TRIPOS>MOLECULE
MOL
  179   176     1     0     0
SMALL
resp


@<TRIPOS>ATOM
      1 C1          1.3690    3.4610    5.6570 c3        1 MOL     -0.358006
      2 C2          0.9020    3.1320    4.2180 c         1 MOL      0.663901
      3 O1          1.6650    3.4460    3.2840 o         1 MOL     -0.595193
      4 H1          2.0250    2.6670    6.0160 hc        1 MOL      0.095576
      5 H2          1.9120    4.4060    5.6570 hc        1 MOL      0.095576
      6 H3          0.5020    3.5380    6.3120 hc        1 MOL      0.095576
      7 N1         -0.3640    2.7710    4.0220 n         1 MOL     -0.515909
      8 C3         -0.9970    2.5720    2.7590 c3        1 MOL      0.163178
      9 C4         -1.3740    3.8630    1.9900 c         1 MOL      0.376031
     10 O2         -2.5330    4.3800    1.9650 o         1 MOL     -0.472693
     11 C5         -2.2950    1.7180    3.0910 c3        1 MOL     -0.000683
     12 C6         -2.9970    1.4610    1.7390 c         1 MOL      0.587889
     13 O3         -2.4000    1.3820    0.6660 o         1 MOL     -0.672526
     14 O4         -4.2120    1.2620    1.8410 o         1 MOL     -0.672526
     15 H4         -0.7850    2.2830    4.7910 hn        1 MOL      0.278567
     16 H5         -0.3920    1.8730    2.1960 h1        1 MOL      0.007960
     17 H6         -2.9220    2.3550    3.7230 hc        1 MOL      0.018241
     18 H7         -2.1670    0.8000    3.6500 hc        1 MOL      0.018241
     19 N2         -0.3650    4.4770    1.3550 n         1 MOL     -0.271628
     20 C7         -0.4880    5.8990    0.9380 c3        1 MOL      0.008885
     21 C8         -1.4410    6.0590   -0.2880 c         1 MOL      0.385240
     22 O5         -1.9950    7.1430   -0.4390 o         1 MOL     -0.541788
     23 C9          0.9100    6.4890    0.8310 c3        1 MOL     -0.088700
     24 C10         0.8860    7.9200    0.2800 c3        1 MOL      0.019269
     25 C11         2.3810    8.4430    0.2620 c3        1 MOL     -0.538845
     26 C12         3.4330    7.6950   -0.5390 c3        1 MOL      0.149274
     27 N3          3.0880    7.5210   -1.9530 n4        1 MOL     -0.541125
     28 H8          0.5340    4.0420    1.2470 hn        1 MOL      0.265588
     29 H9         -1.0520    6.4330    1.7180 h1        1 MOL      0.119208
     30 H10         1.4120    5.8240    0.1240 hc        1 MOL      0.073369
     31 H11         1.3640    6.4580    1.8280 hc        1 MOL      0.073369
     32 H12         0.2050    8.3780    0.9990 hc        1 MOL      0.058055
     33 H13         0.5020    7.9670   -0.7420 hc        1 MOL      0.058055
     34 H14         2.6690    8.3360    1.3080 hc        1 MOL      0.189714
     35 H15         2.3970    9.4860   -0.0680 hc        1 MOL      0.189714
     36 H16         3.6180    6.7020   -0.1170 hx        1 MOL      0.096587
     37 H17         4.4410    8.0620   -0.3460 hx        1 MOL      0.096587
     38 H18         3.6010    6.7630   -2.3750 hn        1 MOL      0.378695
     39 H19         2.1350    7.1990   -2.0760 hn        1 MOL      0.378695
     40 H20         3.2010    8.4340   -2.3640 hn        1 MOL      0.378695
     41 N4         -1.7530    4.9530   -1.0590 n         1 MOL     -0.192796
     42 C13        -2.6640    4.9910   -2.1980 c3        1 MOL     -0.097836
     43 C14        -4.0770    4.5450   -1.8090 c         1 MOL      0.372631
     44 O6         -4.9820    4.5320   -2.6670 o         1 MOL     -0.518827
     45 C15        -2.0920    4.1470   -3.3680 c3        1 MOL     -0.173557
     46 C16        -1.8630    2.7670   -2.8190 c         1 MOL      0.623139
     47 O7         -2.7320    1.8610   -2.9600 o         1 MOL     -0.699694
     48 O8         -0.8770    2.4710   -2.0860 o         1 MOL     -0.699694
     49 H21        -1.1300    4.1700   -0.9250 hn        1 MOL      0.141037
     50 H22        -2.7600    6.0440   -2.4860 h1        1 MOL      0.122794
     51 H23        -1.2370    4.6350   -3.8310 hc        1 MOL      0.073219
     52 H24        -2.8680    4.1780   -4.1430 hc        1 MOL      0.073219
     53 N5         -4.3700    4.0880   -0.6260 n         1 MOL      0.074423
     54 C17        -5.6750    3.8110   -0.0380 c3        1 MOL     -0.183304
     55 C18        -6.4490    2.6570   -0.6380 c         1 MOL      0.645701
     56 O9         -7.3530    2.8340   -1.4690 o         1 MOL     -0.550729
     57 H25        -3.6940    4.1010    0.1190 hn        1 MOL      0.126112
     58 H26        -6.2960    4.7120   -0.0380 h1        1 MOL      0.071083
     59 H27        -5.5410    3.5710    1.0120 h1        1 MOL      0.071083
     60 N6         -5.9750    1.4510   -0.3140 n         1 MOL     -0.552527
     61 C19        -6.4670    0.2160   -1.0110 c3        1 MOL      0.172302
     62 C20        -6.4360   -1.1340   -0.1550 c         1 MOL      0.273999
     63 O10        -6.8860   -2.2120   -0.5340 o         1 MOL     -0.437845
     64 C21        -5.6970   -0.0090   -2.2860 c3        1 MOL     -0.436101
     65 C22        -4.6310   -1.0270   -2.3660 c         1 MOL      0.596384
     66 N7         -4.7510   -1.8800   -3.3420 n         1 MOL     -0.574106
     67 O11        -3.7670   -1.1060   -1.4770 o         1 MOL     -0.628659
     68 H28        -5.0490    1.4960    0.0920 hn        1 MOL      0.219203
     69 H29        -7.5350    0.2680   -1.2590 h1        1 MOL      0.107347
     70 H30        -5.3930    1.0050   -2.5800 hc        1 MOL      0.163076
     71 H31        -6.4080   -0.2320   -3.0780 hc        1 MOL      0.163076
     72 H32        -5.5510   -1.8640   -3.9470 hn        1 MOL      0.316421
     73 H33        -4.0390   -2.5700   -3.5610 hn        1 MOL      0.316421
     74 N8         -5.7990   -0.9970    1.0540 n         1 MOL     -0.180747
     75 C23        -5.8420   -2.0740    2.1740 c3        1 MOL     -0.252482
     76 C24        -4.6750   -3.0650    2.2190 c         1 MOL      0.678227
     77 O12        -4.8010   -4.0670    2.9200 o         1 MOL     -0.589457
     78 H34        -5.3470   -0.1300    1.2860 hn        1 MOL      0.271012
     79 H35        -6.7410   -2.6810    2.0510 h1        1 MOL      0.122616
     80 H36        -5.8390   -1.5900    3.1480 h1        1 MOL      0.122616
     81 N9         -3.6760   -2.8230    1.3780 n         1 MOL     -0.635377
     82 C25        -2.5100   -3.7340    1.0600 c3        1 MOL      0.714424
     83 C26        -1.2630   -2.8420    1.0350 c         1 MOL      0.191386
     84 O13        -1.3160   -1.7090    0.5600 o         1 MOL     -0.559084
     85 C27        -2.6800   -4.6440   -0.2030 c3        1 MOL      0.057004
     86 C28        -3.7260   -5.7520   -0.1960 ca        1 MOL     -0.180623
     87 C29        -5.0440   -5.5170   -0.6790 ca        1 MOL     -0.037717
     88 C30        -3.4420   -7.0020    0.4070 ca        1 MOL     -0.037717
     89 C31        -6.0710   -6.4300   -0.6220 ca        1 MOL     -0.406565
     90 C32        -4.5570   -7.9680    0.4970 ca        1 MOL     -0.406565
     91 C33        -5.8420   -7.6230    0.0060 ca        1 MOL      0.571247
     92 O14        -6.7180   -8.5910    0.0420 oh        1 MOL     -0.501037
     93 H37        -3.7880   -2.0490    0.7500 hn        1 MOL      0.362096
     94 H38        -2.4120   -4.4640    1.8520 h1        1 MOL     -0.122930
     95 H39        -1.7220   -5.1460   -0.3340 hc        1 MOL     -0.034188
     96 H40        -2.9460   -3.9510   -0.9920 hc        1 MOL     -0.034188
     97 H41        -5.1900   -4.5850   -1.2140 ha        1 MOL      0.107588
     98 H42        -2.4700   -7.2200    0.8170 ha        1 MOL      0.107588
     99 H43        -6.9560   -6.2220   -1.2060 ha        1 MOL      0.174546
    100 H44        -4.3400   -8.9560    0.8700 ha        1 MOL      0.174546
    101 H45        -6.4050   -9.2690    0.6430 ho        1 MOL      0.339477
    102 N10        -0.1190   -3.3460    1.4780 n         1 MOL     -0.420946
    103 C34         1.2220   -2.8200    1.4970 c3        1 MOL     -0.027897
    104 C35         2.3190   -3.7350    0.8710 c         1 MOL      0.459039
    105 O15         2.6630   -4.8710    1.3320 o         1 MOL     -0.524417
    106 C36         1.5660   -2.5140    2.9970 c3        1 MOL      0.010363
    107 C37         0.6650   -1.3310    3.4560 c3        1 MOL      0.234379
    108 C38         3.0560   -2.2430    3.2790 c3        1 MOL     -0.144801
    109 C39         0.7200   -0.8510    4.9180 c3        1 MOL     -0.344580
    110 H46        -0.1690   -4.3010    1.8060 hn        1 MOL      0.301061
    111 H47         1.2850   -1.9670    0.8210 h1        1 MOL      0.140145
    112 H48         1.3060   -3.4450    3.5050 hc        1 MOL      0.017974
    113 H49        -0.3820   -1.5680    3.2910 hc        1 MOL     -0.005052
    114 H50         0.8820   -0.5380    2.7390 hc        1 MOL     -0.005052
    115 H51         3.3830   -1.3900    2.6780 hc        1 MOL      0.035139
    116 H52         3.1440   -2.1950    4.3600 hc        1 MOL      0.035139
    117 H53         3.6960   -3.0670    2.9510 hc        1 MOL      0.035139
    118 H54         0.4640   -1.6730    5.5950 hc        1 MOL      0.073963
    119 H55         1.7800   -0.7070    5.1250 hc        1 MOL      0.073963
    120 H56         0.0330   -0.0170    5.0440 hc        1 MOL      0.073963
    121 N11         2.9020   -3.3440   -0.2860 n         1 MOL     -0.333970
    122 C40         3.9880   -3.9390   -0.9810 c3        1 MOL      0.010807
    123 C41         5.3320   -3.4290   -0.4570 c         1 MOL      0.541157
    124 O16         5.4310   -2.5560    0.3490 o         1 MOL     -0.344274
    125 C42         3.7860   -3.9200   -2.4400 c3        1 MOL     -0.033985
    126 O17         4.1170   -2.6560   -3.0290 oh        1 MOL     -0.545381
    127 H57         2.4810   -2.5870   -0.8120 hn        1 MOL      0.296092
    128 H58         4.0640   -5.0130   -0.7640 h1        1 MOL      0.063401
    129 H59         2.7460   -4.1360   -2.7070 h1        1 MOL      0.088903
    130 H60         4.3360   -4.7090   -2.9530 h1        1 MOL      0.088903
    131 H61         4.8740   -2.8870   -3.5730 ho        1 MOL      0.370949
    132 N12         6.4080   -4.1220   -0.8580 n         1 MOL     -0.514025
    133 C43         7.8170   -3.8590   -0.4280 c3        1 MOL      0.138747
    134 C44         8.3260   -2.3830   -0.8300 c         1 MOL      0.268122
    135 O18         8.9950   -1.6860   -0.0220 o         1 MOL     -0.457314
    136 C45         8.7920   -4.8290   -1.2060 c3        1 MOL     -0.262089
    137 H62         6.3010   -4.8490   -1.5640 hn        1 MOL      0.269468
    138 H63         8.0420   -4.0540    0.6230 h1        1 MOL      0.097541
    139 H64         9.7740   -4.8530   -0.7380 hc        1 MOL      0.086060
    140 H65         8.5430   -5.8860   -1.0490 hc        1 MOL      0.086060
    141 H66         8.9220   -4.4720   -2.2270 hc        1 MOL      0.086060
    142 N13         7.7570   -1.8360   -1.9630 n         1 MOL     -0.091477
    143 C46         8.0610   -0.4680   -2.3660 c3        1 MOL      0.009336
    144 C47         7.3290    0.4520   -1.3520 c         1 MOL      0.448159
    145 O19         7.9310    1.4210   -0.8400 o         1 MOL     -0.502936
    146 C48         7.6360   -0.2740   -3.8960 c3        1 MOL     -0.314493
    147 H67         7.3940   -2.5140   -2.6200 hn        1 MOL      0.181983
    148 H68         9.1350   -0.2900   -2.2950 h1        1 MOL      0.097786
    149 H69         7.5180    0.7940   -4.0860 hc        1 MOL      0.090300
    150 H70         8.3310   -0.8380   -4.5170 hc        1 MOL      0.090300
    151 H71         6.6300   -0.6450   -4.0980 hc        1 MOL      0.090300
    152 N14         6.0520    0.1370   -1.0450 n         1 MOL     -0.255247
    153 C49         5.2530    0.9260   -0.0760 c3        1 MOL      0.002701
    154 C50         5.8820    0.8650    1.3090 c         1 MOL      0.391642
    155 O20         6.0880    1.9300    1.9480 o         1 MOL     -0.578821
    156 C51         3.7630    0.4850    0.0970 c3        1 MOL     -0.066515
    157 C52         2.9730    0.6280   -1.2450 c3        1 MOL      0.106973
    158 C53         1.5360    0.1290   -1.0660 c         1 MOL      0.702862
    159 O21         0.8050    0.7410   -0.3070 o         1 MOL     -0.742914
    160 O22         0.9910   -0.7760   -1.7050 o         1 MOL     -0.742914
    161 H72         5.7260   -0.7720   -1.3280 hn        1 MOL      0.128663
    162 H73         5.3760    1.9460   -0.4230 h1        1 MOL      0.079591
    163 H74         3.2500    0.9950    0.9140 hc        1 MOL      0.033319
    164 H75         3.7530   -0.6000    0.1860 hc        1 MOL      0.033319
    165 H76         3.4820    0.1900   -2.1060 hc        1 MOL     -0.054950
    166 H77         2.8720    1.6670   -1.5610 hc        1 MOL     -0.054950
    167 N15         6.1570   -0.2710    1.8650 n         1 MOL      0.024694
    168 C54         6.9310   -0.5260    3.1010 c3        1 MOL     -0.229235
    169 H78         7.5070   -1.4440    2.9850 h1        1 MOL      0.095199
    170 H79         7.6100    0.3070    3.2830 h1        1 MOL      0.095199
    171 H80         6.2470   -0.6290    3.9430 h1        1 MOL      0.095199
    172 H81         5.9100   -1.0660    1.2950 hn        1 MOL      0.054047
    173 Ca1        -1.4770    0.1160   -1.3220 Ca        1 MOL      1.744425
    174 O23        -0.8690   -0.2060   -4.1630 oh        1 MOL     -0.694681
    175 H82        -1.4510   -0.7480   -4.6970 ho        1 MOL      0.341566
    176 H83        -0.0010   -0.5880   -4.2810 ho        1 MOL      0.341566
    177 O24        -1.4470   -2.5370   -2.5340 oh        1 MOL     -0.694681
    178 H84        -0.6750   -3.0290   -2.2420 ho        1 MOL      0.341566
    179 H85        -2.1150   -3.2090   -2.6930 ho        1 MOL      0.341566
@<TRIPOS>BOND
     1    1    2 1   
     2    1    4 1   
     3    1    5 1   
     4    1    6 1   
     5    2    3 2   
     6    2    7 1   
     7    7    8 1   
     8    7   15 1   
     9    8    9 1   
    10    8   11 1   
    11    8   16 1   
    12    9   10 2   
    13    9   19 1   
    14   11   12 1   
    15   11   17 1   
    16   11   18 1   
    17   12   13 1   
    18   12   14 1   
    19   19   20 1   
    20   19   28 1   
    21   20   21 1   
    22   20   23 1   
    23   20   29 1   
    24   21   22 2   
    25   21   41 1   
    26   23   24 1   
    27   23   30 1   
    28   23   31 1   
    29   24   25 1   
    30   24   32 1   
    31   24   33 1   
    32   25   26 1   
    33   25   34 1   
    34   25   35 1   
    35   26   27 1   
    36   26   36 1   
    37   26   37 1   
    38   27   38 1   
    39   27   39 1   
    40   27   40 1   
    41   41   42 1   
    42   41   49 1   
    43   42   43 1   
    44   42   45 1   
    45   42   50 1   
    46   43   44 2   
    47   43   53 1   
    48   45   46 1   
    49   45   51 1   
    50   45   52 1   
    51   46   47 1   
    52   46   48 1   
    53   53   54 1   
    54   53   57 1   
    55   54   55 1   
    56   54   58 1   
    57   54   59 1   
    58   55   56 2   
    59   55   60 1   
    60   60   61 1   
    61   60   68 1   
    62   61   62 1   
    63   61   64 1   
    64   61   69 1   
    65   62   63 2   
    66   62   74 1   
    67   64   65 1   
    68   64   70 1   
    69   64   71 1   
    70   65   66 1   
    71   65   67 2   
    72   66   72 1   
    73   66   73 1   
    74   74   75 1   
    75   74   78 1   
    76   75   76 1   
    77   75   79 1   
    78   75   80 1   
    79   76   77 2   
    80   76   81 1   
    81   81   82 1   
    82   81   93 1   
    83   82   83 1   
    84   82   85 1   
    85   82   94 1   
    86   83   84 2   
    87   83  102 1   
    88   85   86 1   
    89   85   95 1   
    90   85   96 1   
    91   86   87 ar  
    92   86   88 ar  
    93   87   89 ar  
    94   87   97 1   
    95   88   90 ar  
    96   88   98 1   
    97   89   91 ar  
    98   89   99 1   
    99   90   91 ar  
   100   90  100 1   
   101   91   92 1   
   102   92  101 1   
   103  102  103 1   
   104  102  110 1   
   105  103  104 1   
   106  103  106 1   
   107  103  111 1   
   108  104  105 2   
   109  104  121 1   
   110  106  107 1   
   111  106  108 1   
   112  106  112 1   
   113  107  109 1   
   114  107  113 1   
   115  107  114 1   
   116  108  115 1   
   117  108  116 1   
   118  108  117 1   
   119  109  118 1   
   120  109  119 1   
   121  109  120 1   
   122  121  122 1   
   123  121  127 1   
   124  122  123 1   
   125  122  125 1   
   126  122  128 1   
   127  123  124 2   
   128  123  132 1   
   129  125  126 1   
   130  125  129 1   
   131  125  130 1   
   132  126  131 1   
   133  132  133 1   
   134  132  137 1   
   135  133  134 1   
   136  133  136 1   
   137  133  138 1   
   138  134  135 2   
   139  134  142 1   
   140  136  139 1   
   141  136  140 1   
   142  136  141 1   
   143  142  143 1   
   144  142  147 1   
   145  143  144 1   
   146  143  146 1   
   147  143  148 1   
   148  144  145 2   
   149  144  152 1   
   150  146  149 1   
   151  146  150 1   
   152  146  151 1   
   153  152  153 1   
   154  152  161 1   
   155  153  154 1   
   156  153  156 1   
   157  153  162 1   
   158  154  155 2   
   159  154  167 1   
   160  156  157 1   
   161  156  163 1   
   162  156  164 1   
   163  157  158 1   
   164  157  165 1   
   165  157  166 1   
   166  158  159 1   
   167  158  160 1   
   168  167  168 1   
   169  167  172 1   
   170  168  169 1   
   171  168  170 1   
   172  168  171 1   
   173  174  175 1   
   174  174  176 1   
   175  177  178 1   
   176  177  179 1   
@<TRIPOS>SUBSTRUCTURE
     1 MOL         1 TEMP              0 ****  ****    0 ROOT
