@<TRIPOS>MOLECULE
MOL
  189   185     1     0     0
SMALL
resp


@<TRIPOS>ATOM
      1 C1          0.0190   -0.5750    6.6330 c3        1 MOL     -0.362919
      2 C2         -0.5600    0.0360    5.3330 c         1 MOL      0.731095
      3 O1          0.1660    0.8510    4.7730 o         1 MOL     -0.584814
      4 H1          1.0710   -0.8160    6.4830 hc        1 MOL      0.097163
      5 H2         -0.0760    0.1440    7.4460 hc        1 MOL      0.097163
      6 H3         -0.5290   -1.4830    6.8830 hc        1 MOL      0.097163
      7 N1         -1.7620   -0.2440    4.7740 n         1 MOL     -0.623892
      8 C3         -2.2710    0.3410    3.5350 c3        1 MOL      0.152075
      9 C4         -2.5420    1.8230    3.5310 c         1 MOL      0.526427
     10 O2         -3.3260    2.2980    4.3730 o         1 MOL     -0.571140
     11 C5         -3.3420   -0.6350    3.0550 c3        1 MOL     -0.080380
     12 C6         -3.9800   -0.2980    1.7420 c         1 MOL      0.775649
     13 O3         -3.3730    0.3890    0.9110 o         1 MOL     -0.692352
     14 O4         -5.1610   -0.7120    1.5480 o         1 MOL     -0.692352
     15 H4         -2.4150   -0.8370    5.2690 hn        1 MOL      0.316529
     16 H5         -1.4810    0.2920    2.7880 h1        1 MOL      0.033168
     17 H6         -4.1560   -0.6640    3.7830 hc        1 MOL      0.009276
     18 H7         -2.8740   -1.6140    3.0480 hc        1 MOL      0.009276
     19 N2         -1.9940    2.5210    2.5680 n         1 MOL     -0.187995
     20 C7         -1.9910    3.9890    2.4270 c3        1 MOL      0.061001
     21 C8         -3.2230    4.6180    1.8160 c         1 MOL      0.494260
     22 O5         -3.6040    5.7680    2.0240 o         1 MOL     -0.550250
     23 C9         -0.7000    4.6430    1.8400 c3        1 MOL     -0.026364
     24 C10        -0.3510    4.4150    0.3420 c3        1 MOL     -0.074647
     25 C11         0.9620    4.9930   -0.1400 c3        1 MOL      0.114285
     26 C12         1.3220    4.6680   -1.6400 c3        1 MOL     -0.367028
     27 N3          2.7650    4.9570   -1.8580 n4        1 MOL     -0.303619
     28 H8         -1.4630    2.0480    1.8440 hn        1 MOL      0.080971
     29 H9         -1.9760    4.4590    3.4110 h1        1 MOL      0.055363
     30 H10         0.1070    4.1770    2.4130 hc        1 MOL      0.005183
     31 H11        -0.6510    5.7180    1.9530 hc        1 MOL      0.005183
     32 H12        -1.1790    4.8810   -0.1840 hc        1 MOL      0.053880
     33 H13        -0.3090    3.3430    0.1710 hc        1 MOL      0.053880
     34 H14         1.7620    4.6360    0.5090 hc        1 MOL      0.045817
     35 H15         0.8540    6.0730   -0.1130 hc        1 MOL      0.045817
     36 H16         0.6020    5.1630   -2.2970 hx        1 MOL      0.183069
     37 H17         1.2440    3.5860   -1.6840 hx        1 MOL      0.183069
     38 H18         3.1790    4.5430   -2.6830 hn        1 MOL      0.268089
     39 H19         2.7550    5.9670   -1.9000 hn        1 MOL      0.268089
     40 H20         3.3070    4.7490   -1.0390 hn        1 MOL      0.268089
     41 N4         -3.8800    3.8510    0.9630 n         1 MOL     -0.496319
     42 C13        -4.7970    4.3720   -0.0680 c3        1 MOL      0.254353
     43 C14        -6.0490    3.4330   -0.2030 c         1 MOL      0.286804
     44 O6         -6.9460    3.5960   -1.0860 o         1 MOL     -0.516389
     45 C15        -4.1320    4.6500   -1.3660 c3        1 MOL     -0.290217
     46 C16        -3.1960    3.6200   -1.8730 c         1 MOL      0.950999
     47 O7         -2.4200    3.9210   -2.8050 o         1 MOL     -0.778633
     48 O8         -3.2650    2.4540   -1.3990 o         1 MOL     -0.778633
     49 H21        -3.6670    2.8700    0.9920 hn        1 MOL      0.243984
     50 H22        -5.2200    5.3130    0.2600 h1        1 MOL      0.072840
     51 H23        -3.6250    5.5950   -1.1810 hc        1 MOL      0.063818
     52 H24        -4.8740    4.9020   -2.1300 hc        1 MOL      0.063818
     53 N5         -6.0480    2.3840    0.6160 n         1 MOL     -0.158297
     54 C17        -7.3300    1.6990    0.7720 c3        1 MOL     -0.270596
     55 C18        -7.6090    0.7380   -0.3630 c         1 MOL      0.596913
     56 O9         -8.6790    0.1870   -0.3160 o         1 MOL     -0.559716
     57 H25        -5.2790    2.2110    1.2530 hn        1 MOL      0.204789
     58 H26        -8.0970    2.4910    0.7810 h1        1 MOL      0.139315
     59 H27        -7.3810    1.3070    1.7870 h1        1 MOL      0.139315
     60 N6         -6.6740    0.4890   -1.2690 n         1 MOL     -0.303198
     61 C19        -6.8980   -0.5090   -2.3170 c3        1 MOL     -0.037234
     62 C20        -7.0130   -1.9720   -1.7770 c         1 MOL      0.351590
     63 O10        -7.5370   -2.8700   -2.4110 o         1 MOL     -0.494892
     64 C21        -5.8690   -0.3900   -3.4120 c3        1 MOL     -0.275248
     65 C22        -4.4210   -0.5120   -2.9340 c         1 MOL      0.843076
     66 O11        -3.6050    0.4210   -3.1960 o         1 MOL     -0.741024
     67 O12        -4.0040   -1.2810   -2.0850 o         1 MOL     -0.741024
     68 H28        -5.8120    1.0000   -1.2050 hn        1 MOL      0.277750
     69 H29        -7.8690   -0.3310   -2.7590 h1        1 MOL      0.132229
     70 H30        -5.9120    0.5460   -3.9800 hc        1 MOL      0.091812
     71 H31        -5.9120   -1.1580   -4.1730 hc        1 MOL      0.091812
     72 N7         -6.7450   -2.1060   -0.5080 n         1 MOL     -0.094504
     73 C23        -6.6220   -3.4280    0.0990 c3        1 MOL     -0.164437
     74 C24        -5.3740   -4.2400   -0.2700 c         1 MOL      0.462794
     75 O13        -5.5250   -5.4720   -0.3080 o         1 MOL     -0.545977
     76 H32        -6.4990   -1.2660    0.0070 hn        1 MOL      0.227190
     77 H33        -7.4410   -4.0960   -0.1410 h1        1 MOL      0.105827
     78 H34        -6.7020   -3.2560    1.1720 h1        1 MOL      0.105827
     79 N8         -4.2610   -3.6390   -0.5610 n         1 MOL     -0.097002
     80 C25        -2.9380   -4.3130   -0.7520 c3        1 MOL     -0.246983
     81 C26        -1.7860   -3.4380   -0.2940 c         1 MOL      0.756885
     82 O14        -1.8390   -2.2220   -0.0820 o         1 MOL     -0.651260
     83 C27        -2.7420   -4.7130   -2.2400 c3        1 MOL      0.593555
     84 C28        -3.0850   -6.1580   -2.5090 c3        1 MOL     -0.440460
     85 O15        -3.4050   -3.9020   -3.1580 oh        1 MOL     -0.660185
     86 H35        -4.1980   -2.6300   -0.4990 hn        1 MOL      0.063918
     87 H36        -2.9010   -5.2510   -0.1960 h1        1 MOL      0.101185
     88 H37        -1.6770   -4.6960   -2.4290 h1        1 MOL     -0.078300
     89 H38        -3.6930   -3.1190   -2.6850 ho        1 MOL      0.438122
     90 H39        -2.6170   -6.8760   -1.8330 hc        1 MOL      0.104525
     91 H40        -4.1390   -6.2680   -2.2830 hc        1 MOL      0.104525
     92 H41        -2.8290   -6.4160   -3.5310 hc        1 MOL      0.104525
     93 N9         -0.6550   -4.1440   -0.0220 n         1 MOL     -0.694077
     94 C29         0.5980   -3.4340    0.3760 c3        1 MOL      0.150878
     95 C30         1.7860   -3.6540   -0.5510 c         1 MOL      0.462949
     96 O16         2.0340   -4.8170   -0.9010 o         1 MOL     -0.538356
     97 C31         0.9610   -3.9610    1.7770 c3        1 MOL      0.226970
     98 C32        -0.1750   -3.8060    2.8210 c3        1 MOL      0.072084
     99 C33         2.1580   -3.1430    2.3310 c3        1 MOL     -0.425651
    100 C34        -0.0380   -4.7310    4.0270 c3        1 MOL     -0.255631
    101 H42        -0.6750   -5.1520   -0.0780 hn        1 MOL      0.339033
    102 H43         0.4490   -2.3470    0.4450 h1        1 MOL      0.001659
    103 H44         1.2280   -5.0150    1.7300 hc        1 MOL     -0.006326
    104 H45        -1.1250   -4.0760    2.3620 hc        1 MOL      0.015840
    105 H46        -0.2320   -2.7710    3.1330 hc        1 MOL      0.015840
    106 H47         2.3790   -3.4020    3.3590 hc        1 MOL      0.080627
    107 H48         3.0190   -3.2770    1.6760 hc        1 MOL      0.080627
    108 H49         2.0080   -2.0580    2.3590 hc        1 MOL      0.080627
    109 H50        -0.2140   -5.7500    3.7010 hc        1 MOL      0.057493
    110 H51         0.9460   -4.5980    4.4650 hc        1 MOL      0.057493
    111 H52        -0.7430   -4.4960    4.8320 hc        1 MOL      0.057493
    112 N10         2.4480   -2.5500   -0.8970 n         1 MOL     -0.238326
    113 C35         3.7650   -2.5280   -1.6580 c3        1 MOL      0.033414
    114 C36         4.9100   -2.5210   -0.7090 c         1 MOL      0.278114
    115 O17         4.7690   -2.2140    0.4790 o         1 MOL     -0.247541
    116 C37         3.9280   -1.2310   -2.4510 c3        1 MOL      0.223260
    117 C38         3.0730   -0.9390   -3.6880 c3        1 MOL     -0.458306
    118 O18         3.7690   -0.1150   -1.6470 oh        1 MOL     -0.514045
    119 H53         2.0680   -1.6790   -0.5450 hn        1 MOL      0.151886
    120 H54         3.7390   -3.4250   -2.2870 h1        1 MOL      0.087544
    121 H55         4.9420   -1.1820   -2.8390 h1        1 MOL      0.075962
    122 H56         2.8190   -0.0430   -1.4920 ho        1 MOL      0.348415
    123 H57         3.7070   -0.4150   -4.3980 hc        1 MOL      0.112806
    124 H58         2.7400   -1.8730   -4.1520 hc        1 MOL      0.112806
    125 H59         2.1800   -0.3750   -3.4280 hc        1 MOL      0.112806
    126 N11         6.1340   -2.7560   -1.1930 n         1 MOL     -0.171833
    127 C39         7.4050   -2.4530   -0.5380 c3        1 MOL     -0.114397
    128 C40         7.4740   -1.0400    0.1180 c         1 MOL      0.412686
    129 O19         7.7870   -1.0050    1.2790 o         1 MOL     -0.434282
    130 C41         8.6230   -2.7180   -1.4360 c3        1 MOL      0.540243
    131 C42         9.7910   -3.3190   -0.5870 c3        1 MOL     -0.480069
    132 O20         8.2590   -3.5690   -2.4720 oh        1 MOL     -0.610850
    133 H60         6.2620   -3.0250   -2.1590 hn        1 MOL      0.156929
    134 H61         7.4730   -3.1460    0.2950 h1        1 MOL      0.079527
    135 H62         8.9510   -1.8400   -1.9800 h1        1 MOL     -0.083314
    136 H63         9.0050   -3.5910   -3.0680 ho        1 MOL      0.392119
    137 H64        10.3750   -2.5840   -0.0380 hc        1 MOL      0.125476
    138 H65         9.5420   -4.1550    0.0620 hc        1 MOL      0.125476
    139 H66        10.4300   -3.9160   -1.2540 hc        1 MOL      0.125476
    140 N12         7.1990   -0.0320   -0.6650 n         1 MOL     -0.225145
    141 C43         7.1950    1.3960   -0.2170 c3        1 MOL     -0.419354
    142 C44         6.2780    1.6320    0.9740 c         1 MOL      0.613550
    143 O21         6.8430    2.2570    1.8690 o         1 MOL     -0.510203
    144 C45         6.8100    2.2550   -1.4080 c3        1 MOL      0.310549
    145 C46         7.2510    3.7180   -1.3300 c3        1 MOL     -0.336398
    146 C47         6.7030    4.6380   -2.4180 c3        1 MOL     -0.063144
    147 C48         7.0330    4.2130   -3.8110 c3        1 MOL     -0.172012
    148 N13         6.3010    4.8770   -4.8860 n4        1 MOL      0.031144
    149 H67         6.8550   -0.2760   -1.5780 hn        1 MOL      0.172322
    150 H68         8.2470    1.6020   -0.0080 h1        1 MOL      0.195517
    151 H69         5.7420    2.0770   -1.5430 hc        1 MOL     -0.068409
    152 H70         7.3200    1.8870   -2.3090 hc        1 MOL     -0.068409
    153 H71         8.3300    3.6620   -1.4600 hc        1 MOL      0.158108
    154 H72         6.9720    4.1720   -0.3760 hc        1 MOL      0.158108
    155 H73         7.0880    5.6350   -2.2130 hc        1 MOL      0.049732
    156 H74         5.6130    4.6190   -2.3820 hc        1 MOL      0.049732
    157 H75         6.7530    3.1630   -3.8330 hx        1 MOL      0.152912
    158 H76         8.1070    4.2430   -4.0150 hx        1 MOL      0.152912
    159 H77         6.4990    5.8560   -5.0390 hn        1 MOL      0.176609
    160 H78         6.4800    4.3280   -5.7140 hn        1 MOL      0.176609
    161 H79         5.3020    4.7650   -4.7950 hn        1 MOL      0.176609
    162 N14         5.0250    1.1090    0.9740 n         1 MOL     -0.314275
    163 C49         4.1240    1.1710    2.1260 c3        1 MOL     -0.074164
    164 C50         4.6190    0.3950    3.3480 c         1 MOL      0.498500
    165 O22         4.5950    0.9380    4.4490 o         1 MOL     -0.544306
    166 C51         2.8010    0.6230    1.6430 c3        1 MOL      0.159935
    167 C52         1.9390    1.5480    0.7790 c3        1 MOL     -0.661025
    168 C53         0.7510    0.7510    0.2160 c         1 MOL      0.959318
    169 O23        -0.4230    0.8550    0.7270 o         1 MOL     -0.717425
    170 O24         1.0430    0.0470   -0.8000 o         1 MOL     -0.717425
    171 H80         4.7530    0.6020    0.1490 hn        1 MOL      0.073086
    172 H81         3.9510    2.1790    2.4810 h1        1 MOL      0.079255
    173 H82         2.1440    0.2540    2.4410 hc        1 MOL      0.052065
    174 H83         3.1400   -0.2680    1.1010 hc        1 MOL      0.052065
    175 H84         2.6410    2.0420    0.1050 hc        1 MOL      0.173899
    176 H85         1.4330    2.2630    1.4230 hc        1 MOL      0.173899
    177 N15         5.1070   -0.8190    3.1470 n         1 MOL      0.022184
    178 C54         5.6470   -1.7750    4.1010 c3        1 MOL     -0.431856
    179 H86         6.6750   -1.5040    4.3440 h1        1 MOL      0.152412
    180 H87         5.0450   -1.7640    5.0090 h1        1 MOL      0.152412
    181 H88         5.6300   -2.7740    3.6650 h1        1 MOL      0.152412
    182 H89         4.9030   -1.0630    2.1870 hn        1 MOL      0.015927
    183 Ca1        -2.0330    0.1780   -1.2410 Ca        1 MOL      1.774284
    184 O25        -1.1130   -1.3590   -3.2990 oh        1 MOL     -0.904994
    185 H90        -1.4570   -1.8810   -4.0270 ho        1 MOL      0.419767
    186 H91        -0.1730   -1.3170   -3.4540 ho        1 MOL      0.419767
    187 O26        -0.4530    2.1630   -2.5290 oh        1 MOL     -0.904994
    188 H92         0.2960    2.2870   -3.1030 ho        1 MOL      0.419767
    189 H93        -1.1180    2.7700   -2.8480 ho        1 MOL      0.419767
@<TRIPOS>BOND
     1    1    2 1   
     2    1    4 1   
     3    1    5 1   
     4    1    6 1   
     5    2    3 2   
     6    2    7 1   
     7    7    8 1   
     8    7   15 1   
     9    8    9 1   
    10    8   11 1   
    11    8   16 1   
    12    9   10 2   
    13    9   19 1   
    14   11   12 1   
    15   11   17 1   
    16   11   18 1   
    17   12   13 1   
    18   12   14 1   
    19   19   20 1   
    20   19   28 1   
    21   20   21 1   
    22   20   23 1   
    23   20   29 1   
    24   21   22 2   
    25   21   41 1   
    26   23   24 1   
    27   23   30 1   
    28   23   31 1   
    29   24   25 1   
    30   24   32 1   
    31   24   33 1   
    32   25   26 1   
    33   25   34 1   
    34   25   35 1   
    35   26   27 1   
    36   26   36 1   
    37   26   37 1   
    38   27   38 1   
    39   27   39 1   
    40   27   40 1   
    41   41   42 1   
    42   41   49 1   
    43   42   43 1   
    44   42   45 1   
    45   42   50 1   
    46   43   44 2   
    47   43   53 1   
    48   45   46 1   
    49   45   51 1   
    50   45   52 1   
    51   46   47 1   
    52   46   48 1   
    53   53   54 1   
    54   53   57 1   
    55   54   55 1   
    56   54   58 1   
    57   54   59 1   
    58   55   56 2   
    59   55   60 1   
    60   60   61 1   
    61   60   68 1   
    62   61   62 1   
    63   61   64 1   
    64   61   69 1   
    65   62   63 2   
    66   62   72 1   
    67   64   65 1   
    68   64   70 1   
    69   64   71 1   
    70   65   66 1   
    71   65   67 1   
    72   72   73 1   
    73   72   76 1   
    74   73   74 1   
    75   73   77 1   
    76   73   78 1   
    77   74   75 2   
    78   74   79 1   
    79   79   80 1   
    80   79   86 1   
    81   80   81 1   
    82   80   83 1   
    83   80   87 1   
    84   81   82 2   
    85   81   93 1   
    86   83   84 1   
    87   83   85 1   
    88   83   88 1   
    89   84   90 1   
    90   84   91 1   
    91   84   92 1   
    92   85   89 1   
    93   93   94 1   
    94   93  101 1   
    95   94   95 1   
    96   94   97 1   
    97   94  102 1   
    98   95   96 2   
    99   95  112 1   
   100   97   98 1   
   101   97   99 1   
   102   97  103 1   
   103   98  100 1   
   104   98  104 1   
   105   98  105 1   
   106   99  106 1   
   107   99  107 1   
   108   99  108 1   
   109  100  109 1   
   110  100  110 1   
   111  100  111 1   
   112  112  113 1   
   113  112  119 1   
   114  113  114 1   
   115  113  116 1   
   116  113  120 1   
   117  114  115 2   
   118  114  126 1   
   119  116  117 1   
   120  116  118 1   
   121  116  121 1   
   122  117  123 1   
   123  117  124 1   
   124  117  125 1   
   125  118  122 1   
   126  126  127 1   
   127  126  133 1   
   128  127  128 1   
   129  127  130 1   
   130  127  134 1   
   131  128  129 2   
   132  128  140 1   
   133  130  131 1   
   134  130  132 1   
   135  130  135 1   
   136  131  137 1   
   137  131  138 1   
   138  131  139 1   
   139  132  136 1   
   140  140  141 1   
   141  140  149 1   
   142  141  142 1   
   143  141  144 1   
   144  141  150 1   
   145  142  143 2   
   146  142  162 1   
   147  144  145 1   
   148  144  151 1   
   149  144  152 1   
   150  145  146 1   
   151  145  153 1   
   152  145  154 1   
   153  146  147 1   
   154  146  155 1   
   155  146  156 1   
   156  147  148 1   
   157  147  157 1   
   158  147  158 1   
   159  148  159 1   
   160  148  160 1   
   161  148  161 1   
   162  162  163 1   
   163  162  171 1   
   164  163  164 1   
   165  163  166 1   
   166  163  172 1   
   167  164  165 2   
   168  164  177 1   
   169  166  167 1   
   170  166  173 1   
   171  166  174 1   
   172  167  168 1   
   173  167  175 1   
   174  167  176 1   
   175  168  169 1   
   176  168  170 1   
   177  177  178 1   
   178  177  182 1   
   179  178  179 1   
   180  178  180 1   
   181  178  181 1   
   182  184  185 1   
   183  184  186 1   
   184  187  188 1   
   185  187  189 1   
@<TRIPOS>SUBSTRUCTURE
     1 MOL         1 TEMP              0 ****  ****    0 ROOT
