@<TRIPOS>MOLECULE
MOL
  186   183     1     0     0
SMALL
resp


@<TRIPOS>ATOM
      1 C1          0.9520   -2.4460    6.4370 c3        1 MOL     -0.343067
      2 C2          1.1400   -2.3630    4.9280 c         1 MOL      0.742956
      3 O1          0.1380   -2.5330    4.2380 o         1 MOL     -0.575607
      4 H1          1.7570   -1.9040    6.9330 hc        1 MOL      0.077760
      5 H2         -0.0060   -2.0010    6.7100 hc        1 MOL      0.077760
      6 H3          0.9710   -3.4890    6.7490 hc        1 MOL      0.077760
      7 N1          2.3480   -1.9880    4.4370 n         1 MOL     -0.653194
      8 C3          2.7910   -1.8130    3.0680 c3        1 MOL      0.344390
      9 C4          3.1460   -3.2070    2.4360 c         1 MOL      0.394647
     10 O2          4.1330   -3.9170    2.8850 o         1 MOL     -0.554461
     11 C5          3.9010   -0.7970    3.1310 c3        1 MOL     -0.228190
     12 C6          4.3720   -0.5380    1.6850 c         1 MOL      0.795288
     13 O3          5.3280    0.2760    1.4640 o         1 MOL     -0.758497
     14 O4          3.8240   -1.1330    0.7100 o         1 MOL     -0.758497
     15 H4          2.9890   -1.5940    5.1060 hn        1 MOL      0.307887
     16 H5          1.9340   -1.4230    2.5180 h1        1 MOL     -0.043515
     17 H6          4.6600   -1.2450    3.7700 hc        1 MOL      0.037630
     18 H7          3.5920    0.1790    3.5070 hc        1 MOL      0.037630
     19 N2          2.3400   -3.7190    1.4740 n         1 MOL     -0.176692
     20 C7          2.6520   -5.0240    0.8060 c3        1 MOL     -0.192948
     21 C8          3.8830   -4.9250   -0.1340 c         1 MOL      0.565753
     22 O5          4.7030   -5.8500   -0.1210 o         1 MOL     -0.561743
     23 C9          1.4200   -5.6180    0.0920 c3        1 MOL      0.163341
     24 C10         0.3400   -5.9760    1.1240 c3        1 MOL     -0.009243
     25 C11         1.7100   -6.9670   -0.6200 c3        1 MOL     -0.257974
     26 C12        -1.0930   -6.2390    0.6250 c3        1 MOL     -0.087300
     27 H8          1.7100   -3.0460    1.0600 hn        1 MOL      0.102223
     28 H9          3.0030   -5.7410    1.5550 h1        1 MOL      0.116226
     29 H10         0.9970   -4.9930   -0.6980 hc        1 MOL      0.052779
     30 H11         0.2210   -5.1150    1.7780 hc        1 MOL     -0.001666
     31 H12         0.6570   -6.7930    1.7690 hc        1 MOL     -0.001666
     32 H13         0.8490   -7.4950   -1.0400 hc        1 MOL      0.054860
     33 H14         2.4550   -6.8670   -1.4080 hc        1 MOL      0.054860
     34 H15         2.2330   -7.6620    0.0390 hc        1 MOL      0.054860
     35 H16        -1.0900   -6.7790   -0.3270 hc        1 MOL      0.019544
     36 H17        -1.7190   -6.8330    1.2840 hc        1 MOL      0.019544
     37 H18        -1.5550   -5.2690    0.4530 hc        1 MOL      0.019544
     38 N3          3.9830   -3.9060   -1.0300 n         1 MOL     -0.445114
     39 C13         5.0750   -3.8280   -2.0640 c3        1 MOL      0.113104
     40 C14         6.3210   -3.1530   -1.5040 c         1 MOL      0.442111
     41 O6          7.3870   -3.3980   -2.0460 o         1 MOL     -0.593834
     42 C15         4.5370   -3.1930   -3.4060 c3        1 MOL     -0.170944
     43 C16         3.9720   -1.7330   -3.2980 c         1 MOL      0.808470
     44 O7          3.9440   -1.0800   -2.1960 o         1 MOL     -0.723260
     45 O8          3.5410   -1.2370   -4.3720 o         1 MOL     -0.723260
     46 H19         3.4540   -3.0590   -0.8680 hn        1 MOL      0.237702
     47 H20         5.3410   -4.8240   -2.3940 h1        1 MOL      0.062900
     48 H21         3.7050   -3.8180   -3.7160 hc        1 MOL      0.038868
     49 H22         5.3210   -3.2760   -4.1620 hc        1 MOL      0.038868
     50 N4          6.2360   -2.3230   -0.4970 n         1 MOL     -0.248270
     51 C17         7.4580   -1.6180    0.0780 c3        1 MOL     -0.097787
     52 C18         7.6680   -0.2170   -0.5260 c         1 MOL      0.491424
     53 O9          8.7400    0.3840   -0.2810 o         1 MOL     -0.652925
     54 H23         5.3440   -2.1580   -0.0300 hn        1 MOL      0.265303
     55 H24         8.2800   -2.2510   -0.2550 h1        1 MOL      0.086097
     56 H25         7.5770   -1.7230    1.1590 h1        1 MOL      0.086097
     57 N5          6.7110    0.2960   -1.2090 n         1 MOL     -0.117270
     58 C19         6.8550    1.6420   -1.8470 c3        1 MOL     -0.118598
     59 C20         6.7030    2.8960   -0.8700 c         1 MOL      0.453563
     60 O10         6.7420    4.0240   -1.4150 o         1 MOL     -0.540426
     61 C21         5.8650    1.6930   -3.0610 c3        1 MOL     -0.002499
     62 C22         4.5210    2.1860   -2.6160 c         1 MOL      0.563114
     63 O11         3.9800    1.9120   -1.5050 o         1 MOL     -0.683869
     64 O12         3.9100    2.9470   -3.4130 o         1 MOL     -0.683869
     65 H26         5.8920   -0.2600   -1.3710 hn        1 MOL      0.109816
     66 H27         7.8420    1.6930   -2.3140 h1        1 MOL      0.093811
     67 H28         5.7900    0.7280   -3.5640 hc        1 MOL      0.032382
     68 H29         6.3700    2.3800   -3.7490 hc        1 MOL      0.032382
     69 N6          6.6510    2.7050    0.4570 n         1 MOL     -0.215277
     70 C23         6.5740    3.6220    1.5650 c3        1 MOL     -0.265429
     71 C24         5.1610    4.2690    1.7380 c         1 MOL      0.542145
     72 O13         5.1480    5.3030    2.4140 o         1 MOL     -0.586343
     73 H30         6.5200    1.7270    0.6360 hn        1 MOL      0.301275
     74 H31         7.3130    4.4150    1.4700 h1        1 MOL      0.122357
     75 H32         6.7150    3.0570    2.4860 h1        1 MOL      0.122357
     76 N7          4.1030    3.8320    1.0590 n         1 MOL     -0.338494
     77 C25         2.7530    4.2540    1.3880 c3        1 MOL      0.008111
     78 C26         1.8830    3.0730    1.7080 c         1 MOL      0.617514
     79 O14         2.1540    2.0000    1.1170 o         1 MOL     -0.697227
     80 C27         2.1750    5.1320    0.2350 c3        1 MOL      0.051057
     81 C28         3.0620    6.3550   -0.0250 c3        1 MOL     -0.060537
     82 C29         2.4470    7.4710   -0.8310 c         1 MOL      0.624945
     83 N8          2.2420    7.2830   -2.1650 n         1 MOL     -0.877460
     84 O15         2.1230    8.5060   -0.3350 o         1 MOL     -0.569934
     85 H33         4.3220    3.1330    0.3680 hn        1 MOL      0.338853
     86 H34         2.8940    4.8420    2.3060 h1        1 MOL      0.041321
     87 H35         1.2070    5.5050    0.5450 hc        1 MOL      0.007803
     88 H36         2.0520    4.4940   -0.6420 hc        1 MOL      0.007803
     89 H37         3.9860    6.0300   -0.4940 hc        1 MOL      0.035395
     90 H38         3.2630    6.8280    0.9420 hc        1 MOL      0.035395
     91 H39         2.6000    6.4360   -2.5740 hn        1 MOL      0.384933
     92 H40         1.9900    8.1150   -2.6720 hn        1 MOL      0.384933
     93 N9          0.8120    3.2800    2.4320 n         1 MOL     -0.550274
     94 C30        -0.3480    2.3140    2.4280 c3        1 MOL      0.433586
     95 C31        -1.2900    2.9360    1.3510 c         1 MOL      0.277103
     96 O16        -1.8160    4.0060    1.6200 o         1 MOL     -0.561826
     97 C32        -0.9770    2.1760    3.7580 c3        1 MOL      0.223602
     98 C33        -2.3270    1.5030    3.8380 c3        1 MOL     -0.298222
     99 C34        -0.0870    1.3410    4.7510 c3        1 MOL     -0.298222
    100 H41         0.6990    4.1560    2.9310 hn        1 MOL      0.273541
    101 H42        -0.0410    1.3260    2.1050 h1        1 MOL      0.016332
    102 H43        -1.1060    3.1710    4.1860 hc        1 MOL     -0.044116
    103 H44        -2.6240    1.4660    4.8890 hc        1 MOL      0.061583
    104 H45        -3.1130    1.9710    3.2430 hc        1 MOL      0.061583
    105 H46        -2.2970    0.4560    3.5380 hc        1 MOL      0.061583
    106 H47        -0.0070    0.3250    4.3610 hc        1 MOL      0.061583
    107 H48         0.8970    1.8230    4.7320 hc        1 MOL      0.061583
    108 H49        -0.4550    1.3850    5.7740 hc        1 MOL      0.061583
    109 N10        -1.7280    2.1100    0.4600 n         1 MOL     -0.122774
    110 C35        -2.8490    2.3640   -0.4830 c3        1 MOL      0.199195
    111 C36        -4.2010    1.8320   -0.0230 c         1 MOL      0.353771
    112 O17        -4.2850    0.8620    0.7570 o         1 MOL     -0.252074
    113 C37        -2.4260    1.6090   -1.7970 c3        1 MOL     -0.198248
    114 C38        -3.3320    1.9070   -2.9790 c         1 MOL      0.672431
    115 N11        -3.4350    3.1320   -3.3990 n         1 MOL     -0.764829
    116 O18        -4.0290    1.1110   -3.5900 o         1 MOL     -0.536915
    117 H50        -1.3860    1.1590    0.4580 hn        1 MOL      0.019409
    118 H51        -3.0090    3.4040   -0.7350 h1        1 MOL      0.017103
    119 H52        -2.3780    0.5310   -1.6210 hc        1 MOL      0.051329
    120 H53        -1.4220    1.8760   -2.1280 hc        1 MOL      0.051329
    121 H54        -2.8490    3.8870   -3.0890 hn        1 MOL      0.344738
    122 H55        -4.0370    3.2940   -4.1980 hn        1 MOL      0.344738
    123 N12        -5.3690    2.3670   -0.4750 n         1 MOL     -0.599510
    124 C39        -6.7510    1.8720   -0.1830 c3        1 MOL      0.459587
    125 C40        -6.8480    0.3270   -0.3160 c         1 MOL      0.493926
    126 O19        -7.4690   -0.3250    0.5190 o         1 MOL     -0.487266
    127 C41        -7.8080    2.5400   -0.9770 c3        1 MOL     -0.175931
    128 C42        -9.2710    2.2530   -0.5140 ca        1 MOL      0.028702
    129 C43        -9.6270    2.3610    0.8090 ca        1 MOL     -0.164157
    130 C44       -10.1550    1.7170   -1.4790 ca        1 MOL     -0.164157
    131 C45       -10.9500    2.0200    1.2210 ca        1 MOL     -0.258756
    132 C46       -11.4770    1.2600   -1.0590 ca        1 MOL     -0.258756
    133 C47       -11.8560    1.4200    0.2760 ca        1 MOL      0.325650
    134 O20       -12.9860    0.8320    0.6610 oh        1 MOL     -0.491717
    135 H56        -5.2090    3.1630   -1.0750 hn        1 MOL      0.263312
    136 H57        -6.8990    2.1640    0.8590 h1        1 MOL      0.001498
    137 H58        -7.6900    2.2270   -2.0180 hc        1 MOL      0.046434
    138 H59        -7.5910    3.6140   -0.9750 hc        1 MOL      0.046434
    139 H60        -8.8850    2.6480    1.5340 ha        1 MOL      0.140270
    140 H61        -9.8500    1.5800   -2.5100 ha        1 MOL      0.140270
    141 H62       -11.3760    2.0550    2.2120 ha        1 MOL      0.147602
    142 H63       -12.0780    0.7020   -1.7590 ha        1 MOL      0.147602
    143 H64       -13.3550    0.2640   -0.0240 ho        1 MOL      0.366887
    144 N13        -6.2340   -0.2960   -1.3570 n         1 MOL     -0.492792
    145 C48        -6.0400   -1.7790   -1.6000 c3        1 MOL      0.053515
    146 C49        -5.3950   -2.5500   -0.4280 c         1 MOL      0.314821
    147 O21        -5.7220   -3.6930   -0.2420 o         1 MOL     -0.508006
    148 C50        -5.1580   -1.9390   -2.8980 c3        1 MOL      0.022127
    149 C51        -4.9210   -3.3990   -3.3740 c3        1 MOL     -0.240742
    150 C52        -4.2740   -3.5250   -4.8000 c         1 MOL      0.705093
    151 O22        -4.8230   -2.9330   -5.7560 o         1 MOL     -0.727937
    152 O23        -3.2080   -4.1940   -4.8870 o         1 MOL     -0.727937
    153 H65        -5.7510    0.2760   -2.0320 hn        1 MOL      0.245236
    154 H66        -6.9930   -2.2840   -1.7400 h1        1 MOL      0.084807
    155 H67        -4.1880   -1.4540   -2.7310 hc        1 MOL      0.026604
    156 H68        -5.6540   -1.3520   -3.6680 hc        1 MOL      0.026604
    157 H69        -5.9070   -3.8660   -3.2930 hc        1 MOL      0.030023
    158 H70        -4.1980   -3.8990   -2.7300 hc        1 MOL      0.030023
    159 N14        -4.4130   -1.9440    0.2850 n         1 MOL     -0.043711
    160 C53        -3.6390   -2.6370    1.3670 c3        1 MOL      0.026932
    161 C54        -4.2710   -2.1510    2.6810 c         1 MOL      0.420929
    162 O24        -4.2680   -2.8930    3.6430 o         1 MOL     -0.603720
    163 C55        -2.2330   -2.1280    1.2180 c3        1 MOL      0.032322
    164 C56        -1.5220   -2.3020   -0.1640 c3        1 MOL     -0.138638
    165 C57        -0.2070   -1.4760   -0.0910 c         1 MOL      0.978880
    166 O25         0.9060   -2.0180   -0.2730 o         1 MOL     -0.755094
    167 O26        -0.1990   -0.2660    0.0190 o         1 MOL     -0.755094
    168 H71        -4.3000   -0.9570    0.1320 hn        1 MOL      0.077456
    169 H72        -3.6580   -3.7310    1.3190 h1        1 MOL      0.074887
    170 H73        -1.5100   -2.5110    1.9420 hc        1 MOL      0.012008
    171 H74        -2.2700   -1.0610    1.4470 hc        1 MOL      0.012008
    172 H75        -2.1060   -1.8340   -0.9480 hc        1 MOL      0.035353
    173 H76        -1.3120   -3.3490   -0.3730 hc        1 MOL      0.035353
    174 N15        -4.9400   -1.0650    2.7680 n         1 MOL      0.156175
    175 C58        -5.7880   -0.6410    3.8600 c3        1 MOL     -0.224535
    176 H77        -5.1710   -0.2340    4.6610 h1        1 MOL      0.073866
    177 H78        -6.4780    0.1260    3.5080 h1        1 MOL      0.073866
    178 H79        -6.3530   -1.4940    4.2350 h1        1 MOL      0.073866
    179 H80        -5.0750   -0.5820    1.8850 hn        1 MOL     -0.164797
    180 Ca1         2.1840    0.2560   -0.8600 Ca        1 MOL      1.715594
    181 O27         0.6070   -0.5580   -2.8640 oh        1 MOL     -0.862981
    182 H81        -0.1150   -1.0930   -3.2000 ho        1 MOL      0.414981
    183 H82         0.5800    0.2360   -3.3990 ho        1 MOL      0.414981
    184 O28         1.4300    2.4920   -2.2900 oh        1 MOL     -0.862981
    185 H83         1.1750    2.2030   -3.1670 ho        1 MOL      0.414981
    186 H84         2.3130    2.8310   -2.3980 ho        1 MOL      0.414981
@<TRIPOS>BOND
     1    1    2 1   
     2    1    4 1   
     3    1    5 1   
     4    1    6 1   
     5    2    3 2   
     6    2    7 1   
     7    7    8 1   
     8    7   15 1   
     9    8    9 1   
    10    8   11 1   
    11    8   16 1   
    12    9   10 2   
    13    9   19 1   
    14   11   12 1   
    15   11   17 1   
    16   11   18 1   
    17   12   13 1   
    18   12   14 1   
    19   19   20 1   
    20   19   27 1   
    21   20   21 1   
    22   20   23 1   
    23   20   28 1   
    24   21   22 2   
    25   21   38 1   
    26   23   24 1   
    27   23   25 1   
    28   23   29 1   
    29   24   26 1   
    30   24   30 1   
    31   24   31 1   
    32   25   32 1   
    33   25   33 1   
    34   25   34 1   
    35   26   35 1   
    36   26   36 1   
    37   26   37 1   
    38   38   39 1   
    39   38   46 1   
    40   39   40 1   
    41   39   42 1   
    42   39   47 1   
    43   40   41 2   
    44   40   50 1   
    45   42   43 1   
    46   42   48 1   
    47   42   49 1   
    48   43   44 1   
    49   43   45 1   
    50   50   51 1   
    51   50   54 1   
    52   51   52 1   
    53   51   55 1   
    54   51   56 1   
    55   52   53 2   
    56   52   57 1   
    57   57   58 1   
    58   57   65 1   
    59   58   59 1   
    60   58   61 1   
    61   58   66 1   
    62   59   60 2   
    63   59   69 1   
    64   61   62 1   
    65   61   67 1   
    66   61   68 1   
    67   62   63 1   
    68   62   64 1   
    69   69   70 1   
    70   69   73 1   
    71   70   71 1   
    72   70   74 1   
    73   70   75 1   
    74   71   72 2   
    75   71   76 1   
    76   76   77 1   
    77   76   85 1   
    78   77   78 1   
    79   77   80 1   
    80   77   86 1   
    81   78   79 2   
    82   78   93 1   
    83   80   81 1   
    84   80   87 1   
    85   80   88 1   
    86   81   82 1   
    87   81   89 1   
    88   81   90 1   
    89   82   83 1   
    90   82   84 2   
    91   83   91 1   
    92   83   92 1   
    93   93   94 1   
    94   93  100 1   
    95   94   95 1   
    96   94   97 1   
    97   94  101 1   
    98   95   96 2   
    99   95  109 1   
   100   97   98 1   
   101   97   99 1   
   102   97  102 1   
   103   98  103 1   
   104   98  104 1   
   105   98  105 1   
   106   99  106 1   
   107   99  107 1   
   108   99  108 1   
   109  109  110 1   
   110  109  117 1   
   111  110  111 1   
   112  110  113 1   
   113  110  118 1   
   114  111  112 2   
   115  111  123 1   
   116  113  114 1   
   117  113  119 1   
   118  113  120 1   
   119  114  115 1   
   120  114  116 2   
   121  115  121 1   
   122  115  122 1   
   123  123  124 1   
   124  123  135 1   
   125  124  125 1   
   126  124  127 1   
   127  124  136 1   
   128  125  126 2   
   129  125  144 1   
   130  127  128 1   
   131  127  137 1   
   132  127  138 1   
   133  128  129 ar  
   134  128  130 ar  
   135  129  131 ar  
   136  129  139 1   
   137  130  132 ar  
   138  130  140 1   
   139  131  133 ar  
   140  131  141 1   
   141  132  133 ar  
   142  132  142 1   
   143  133  134 1   
   144  134  143 1   
   145  144  145 1   
   146  144  153 1   
   147  145  146 1   
   148  145  148 1   
   149  145  154 1   
   150  146  147 2   
   151  146  159 1   
   152  148  149 1   
   153  148  155 1   
   154  148  156 1   
   155  149  150 1   
   156  149  157 1   
   157  149  158 1   
   158  150  151 1   
   159  150  152 1   
   160  159  160 1   
   161  159  168 1   
   162  160  161 1   
   163  160  163 1   
   164  160  169 1   
   165  161  162 2   
   166  161  174 1   
   167  163  164 1   
   168  163  170 1   
   169  163  171 1   
   170  164  165 1   
   171  164  172 1   
   172  164  173 1   
   173  165  166 1   
   174  165  167 1   
   175  174  175 1   
   176  174  179 1   
   177  175  176 1   
   178  175  177 1   
   179  175  178 1   
   180  181  182 1   
   181  181  183 1   
   182  184  185 1   
   183  184  186 1   
@<TRIPOS>SUBSTRUCTURE
     1 MOL         1 TEMP              0 ****  ****    0 ROOT
