@<TRIPOS>MOLECULE
MOL
  189   185     1     0     0
SMALL
resp


@<TRIPOS>ATOM
      1 C1         -0.5700    2.9390   -5.1430 c3        1 MOL     -0.458283
      2 C2          0.0480    2.7120   -3.7690 c         1 MOL      0.661199
      3 O1         -0.6890    2.7780   -2.7580 o         1 MOL     -0.610062
      4 H1         -1.4880    2.3560   -5.2290 hc        1 MOL      0.117852
      5 H2         -0.7980    3.9970   -5.2690 hc        1 MOL      0.117852
      6 H3          0.1330    2.6230   -5.9150 hc        1 MOL      0.117852
      7 N1          1.3530    2.3710   -3.7740 n         1 MOL     -0.513645
      8 C3          2.0440    1.9730   -2.5770 c3        1 MOL      0.062312
      9 C4          2.7000    3.1510   -1.7600 c         1 MOL      0.381522
     10 O2          3.8760    3.4600   -2.0110 o         1 MOL     -0.475408
     11 C5          3.1280    0.9300   -3.0580 c3        1 MOL     -0.099008
     12 C6          3.7730    0.1920   -1.8750 c         1 MOL      0.798138
     13 O3          3.0490    0.1790   -0.8730 o         1 MOL     -0.773768
     14 O4          4.9170   -0.3750   -1.8800 o         1 MOL     -0.773768
     15 H4          1.7440    2.2290   -4.6950 hn        1 MOL      0.309848
     16 H5          1.3680    1.4010   -1.9500 h1        1 MOL      0.089425
     17 H6          3.9620    1.3750   -3.6110 hc        1 MOL      0.021244
     18 H7          2.6910    0.1440   -3.6780 hc        1 MOL      0.021244
     19 N2          1.9780    3.7760   -0.8370 n         1 MOL     -0.244520
     20 C7          2.4160    5.0440   -0.2030 c3        1 MOL      0.042182
     21 C8          3.6150    4.9230    0.7690 c         1 MOL      0.382129
     22 O5          4.4880    5.7520    0.8020 o         1 MOL     -0.492892
     23 C9          1.1770    5.7940    0.3180 c3        1 MOL     -0.325740
     24 C10         0.1580    6.1700   -0.7020 c3        1 MOL      0.457283
     25 C11         0.6610    7.0180   -1.8700 c3        1 MOL     -0.271524
     26 C12        -0.4650    7.9550   -2.2990 c3        1 MOL      0.022415
     27 N3         -1.4640    7.2430   -3.1380 n4        1 MOL     -0.414810
     28 H8          1.1480    3.3080   -0.5090 hn        1 MOL      0.261574
     29 H9          2.8040    5.7400   -0.9520 h1        1 MOL      0.064007
     30 H10         1.6510    6.7000    0.7000 hc        1 MOL      0.077929
     31 H11         0.6910    5.2130    1.0970 hc        1 MOL      0.077929
     32 H12        -0.6010    6.7050   -0.1240 hc        1 MOL     -0.080548
     33 H13        -0.2880    5.2540   -1.0870 hc        1 MOL     -0.080548
     34 H14         0.9170    6.3700   -2.7100 hc        1 MOL      0.103881
     35 H15         1.4750    7.6360   -1.4930 hc        1 MOL      0.103881
     36 H16        -0.0130    8.7390   -2.9040 hx        1 MOL      0.096558
     37 H17        -1.0060    8.5560   -1.5640 hx        1 MOL      0.096558
     38 H18        -2.0640    7.9100   -3.5940 hn        1 MOL      0.342969
     39 H19        -0.9970    6.7720   -3.8990 hn        1 MOL      0.342969
     40 H20        -2.0000    6.5830   -2.5950 hn        1 MOL      0.342969
     41 N4          3.5900    3.8500    1.5910 n         1 MOL     -0.242582
     42 C13         4.6970    3.5130    2.4650 c3        1 MOL      0.077848
     43 C14         5.8520    2.7020    1.8650 c         1 MOL      0.403853
     44 O6          6.9980    2.6200    2.3550 o         1 MOL     -0.539247
     45 C15         4.0610    2.7990    3.7000 c3        1 MOL     -0.157431
     46 C16         3.4370    1.4530    3.4040 c         1 MOL      0.824822
     47 O7          3.6050    0.8190    2.3140 o         1 MOL     -0.744438
     48 O8          2.7530    0.9660    4.3900 o         1 MOL     -0.744438
     49 H21         2.8830    3.1380    1.4470 hn        1 MOL      0.177498
     50 H22         5.1380    4.4370    2.8470 h1        1 MOL      0.072475
     51 H23         3.2260    3.4600    3.9300 hc        1 MOL      0.023063
     52 H24         4.7990    2.7520    4.5020 hc        1 MOL      0.023063
     53 N5          5.6680    2.2140    0.6130 n         1 MOL     -0.050843
     54 C17         6.7620    1.6380   -0.1950 c3        1 MOL     -0.436838
     55 C18         7.1470    0.1270    0.0320 c         1 MOL      0.727878
     56 O9          8.1640   -0.3040   -0.3790 o         1 MOL     -0.598765
     57 H25         4.7600    2.1100    0.1830 hn        1 MOL      0.086576
     58 H26         7.6110    2.3140   -0.0620 h1        1 MOL      0.166466
     59 H27         6.5150    1.7390   -1.2540 h1        1 MOL      0.166466
     60 N6          6.3400   -0.5360    0.8820 n         1 MOL     -0.395579
     61 C19         6.6250   -1.9210    1.3910 c3        1 MOL     -0.013179
     62 C20         6.5540   -3.0910    0.3810 c         1 MOL      0.484326
     63 O10         6.9630   -4.1750    0.8230 o         1 MOL     -0.547216
     64 C21         5.8120   -2.2100    2.6400 c3        1 MOL     -0.167625
     65 C22         4.3370   -2.3820    2.4400 c         1 MOL      0.814420
     66 O11         3.8450   -2.4590    1.2850 o         1 MOL     -0.726132
     67 O12         3.5880   -2.6080    3.3900 o         1 MOL     -0.726132
     68 H28         5.4540   -0.1110    1.1270 hn        1 MOL      0.225370
     69 H29         7.6840   -1.9380    1.6370 h1        1 MOL      0.100868
     70 H30         5.9480   -1.3960    3.3440 hc        1 MOL      0.062138
     71 H31         6.2460   -3.0810    3.1340 hc        1 MOL      0.062138
     72 N7          6.1680   -2.9410   -0.8890 n         1 MOL     -0.354855
     73 C23         6.0570   -4.0560   -1.8230 c3        1 MOL     -0.026618
     74 C24         4.6870   -4.7030   -2.0360 c         1 MOL      0.398277
     75 O13         4.5380   -5.7920   -2.6940 o         1 MOL     -0.547053
     76 H32         5.7650   -2.0650   -1.1960 hn        1 MOL      0.367728
     77 H33         6.7170   -4.8720   -1.4980 h1        1 MOL      0.076957
     78 H34         6.4780   -3.6440   -2.7380 h1        1 MOL      0.076957
     79 N8          3.6340   -4.1160   -1.3510 n         1 MOL     -0.092740
     80 C25         2.2120   -4.5970   -1.3700 c3        1 MOL     -0.334418
     81 C26         1.1470   -3.5280   -1.3480 c         1 MOL      0.626607
     82 O14         1.2740   -2.5600   -0.5720 o         1 MOL     -0.611799
     83 C27         2.0080   -5.4360   -0.0600 c3        1 MOL      0.455690
     84 C28         2.3710   -6.8350   -0.2950 c3        1 MOL     -0.535875
     85 O15         2.7840   -5.0570    0.9960 oh        1 MOL     -0.595373
     86 H35         3.7390   -3.2130   -0.9060 hn        1 MOL      0.149678
     87 H36         2.0110   -5.2470   -2.2110 h1        1 MOL      0.138098
     88 H37         0.9570   -5.3420    0.2010 h1        1 MOL     -0.043276
     89 H38         2.8590   -4.1040    1.0470 ho        1 MOL      0.424204
     90 H39         1.8830   -7.3270   -1.1350 hc        1 MOL      0.143642
     91 H40         3.4140   -6.9220   -0.5890 hc        1 MOL      0.143642
     92 H41         2.2500   -7.3940    0.6310 hc        1 MOL      0.143642
     93 N9          0.0540   -3.7140   -2.1470 n         1 MOL     -0.574367
     94 C29        -1.1120   -2.7740   -2.1040 c3        1 MOL      0.095169
     95 C30        -2.2820   -3.4120   -1.3440 c         1 MOL      0.505227
     96 O16        -2.6550   -4.5830   -1.6190 o         1 MOL     -0.563241
     97 C31        -1.5940   -2.4820   -3.5270 c3        1 MOL      0.051163
     98 C32        -0.5060   -1.9170   -4.4600 c3        1 MOL      0.299259
     99 C33        -2.8760   -1.6400   -3.5820 c3        1 MOL     -0.414571
    100 C34        -0.8580   -1.9300   -5.9260 c3        1 MOL     -0.217044
    101 H42         0.0700   -4.4470   -2.8450 hn        1 MOL      0.337937
    102 H43        -0.8360   -1.8570   -1.5750 h1        1 MOL      0.035755
    103 H44        -1.8560   -3.5120   -3.7750 hc        1 MOL      0.005013
    104 H45         0.3590   -2.5840   -4.3700 hc        1 MOL     -0.052191
    105 H46        -0.2680   -0.9270   -4.0640 hc        1 MOL     -0.052191
    106 H47        -3.6470   -1.9600   -2.8840 hc        1 MOL      0.080972
    107 H48        -2.6660   -0.5750   -3.4840 hc        1 MOL      0.080972
    108 H49        -3.3140   -1.7370   -4.5850 hc        1 MOL      0.080972
    109 H50        -1.7640   -1.3420   -6.0720 hc        1 MOL      0.041873
    110 H51        -0.0180   -1.4520   -6.4300 hc        1 MOL      0.041873
    111 H52        -0.8630   -2.9540   -6.2950 hc        1 MOL      0.041873
    112 N10        -2.8170   -2.5940   -0.4540 n         1 MOL     -0.090270
    113 C35        -3.9030   -2.8740    0.5040 c3        1 MOL     -0.033502
    114 C36        -5.2250   -2.3480   -0.0770 c         1 MOL      0.214193
    115 O17        -5.3470   -1.4430   -0.9490 o         1 MOL     -0.319569
    116 C37        -3.7460   -2.2610    1.8760 c3        1 MOL      0.136196
    117 C38        -2.6090   -2.7030    2.7810 c3        1 MOL     -0.611015
    118 O18        -3.3890   -0.9690    1.7080 oh        1 MOL     -0.472002
    119 H53        -2.3650   -1.6990   -0.3850 hn        1 MOL      0.127435
    120 H54        -4.0630   -3.9360    0.6630 h1        1 MOL      0.075539
    121 H55        -4.7050   -2.3160    2.4030 h1        1 MOL      0.044781
    122 H56        -2.4680   -0.8760    1.9630 ho        1 MOL      0.327551
    123 H57        -2.6050   -3.7860    2.6830 hc        1 MOL      0.175127
    124 H58        -1.6260   -2.4250    2.3990 hc        1 MOL      0.175127
    125 H59        -2.7170   -2.5620    3.8690 hc        1 MOL      0.175127
    126 N11        -6.3140   -2.8410    0.5140 n         1 MOL     -0.221558
    127 C39        -7.6220   -2.2240    0.2460 c3        1 MOL     -0.110459
    128 C40        -7.5070   -0.7490    0.6140 c         1 MOL      0.318097
    129 O19        -8.0860    0.0580   -0.1330 o         1 MOL     -0.494310
    130 C41        -8.7470   -2.7270    1.1100 c3        1 MOL      0.231074
    131 C42        -9.1860   -4.0710    0.5640 c3        1 MOL     -0.233683
    132 O20        -8.3190   -2.9440    2.3990 oh        1 MOL     -0.645954
    133 H60        -6.2580   -3.7040    1.0520 hn        1 MOL      0.293787
    134 H61        -7.9420   -2.2130   -0.7920 h1        1 MOL      0.137732
    135 H62        -9.5880   -2.0320    1.1240 h1        1 MOL      0.078773
    136 H63        -9.0730   -3.0490    2.9820 ho        1 MOL      0.429335
    137 H64        -9.6260   -4.0100   -0.4280 hc        1 MOL      0.067195
    138 H65        -8.3400   -4.7570    0.5020 hc        1 MOL      0.067195
    139 H66       -10.0260   -4.4660    1.1280 hc        1 MOL      0.067195
    140 N12        -6.7850   -0.2570    1.6050 n         1 MOL     -0.192469
    141 C43        -6.5750    1.1730    1.8790 c3        1 MOL     -0.040910
    142 C44        -5.8970    1.8560    0.6640 c         1 MOL      0.161047
    143 O21        -6.2990    2.9970    0.2990 o         1 MOL     -0.501343
    144 C45        -5.7330    1.2810    3.1030 c3        1 MOL     -0.037921
    145 C46        -5.5660    2.6730    3.6820 c3        1 MOL     -0.223500
    146 C47        -4.8400    2.6920    5.0240 c3        1 MOL      0.015757
    147 C48        -3.4310    2.2210    4.8740 c3        1 MOL      0.069856
    148 N13        -2.6900    2.1420    6.1540 n4        1 MOL     -0.559819
    149 H67        -6.3260   -0.9150    2.2190 hn        1 MOL      0.133736
    150 H68        -7.5280    1.6740    2.0710 h1        1 MOL      0.122982
    151 H69        -4.7220    0.9570    2.8560 hc        1 MOL      0.021402
    152 H70        -6.2730    0.6420    3.8030 hc        1 MOL      0.021402
    153 H71        -6.5990    2.9790    3.8820 hc        1 MOL      0.103290
    154 H72        -5.0520    3.3350    2.9880 hc        1 MOL      0.103290
    155 H73        -5.3800    2.0530    5.7240 hc        1 MOL      0.039420
    156 H74        -4.9800    3.7210    5.3860 hc        1 MOL      0.039420
    157 H75        -2.9460    2.9910    4.2830 hx        1 MOL      0.079406
    158 H76        -3.3320    1.2690    4.3630 hx        1 MOL      0.079406
    159 H77        -3.2050    1.4760    6.7150 hn        1 MOL      0.380642
    160 H78        -1.7320    1.8460    6.0230 hn        1 MOL      0.380642
    161 H79        -2.6300    3.0310    6.6260 hn        1 MOL      0.380642
    162 N14        -4.9960    1.1920   -0.0130 n         1 MOL     -0.019948
    163 C49        -4.1700    1.7450   -1.0560 c3        1 MOL     -0.183992
    164 C50        -4.7880    1.7410   -2.4750 c         1 MOL      0.448444
    165 O22        -4.5160    2.6460   -3.2950 o         1 MOL     -0.562971
    166 C51        -2.8410    0.9900   -0.9940 c3        1 MOL      0.035492
    167 C52        -1.9970    1.5610    0.1910 c3        1 MOL     -0.349998
    168 C53        -0.7690    0.7180    0.4770 c         1 MOL      0.778227
    169 O23         0.3690    1.2260    0.5820 o         1 MOL     -0.751437
    170 O24        -0.7800   -0.5160    0.7260 o         1 MOL     -0.751437
    171 H80        -4.6280    0.3280    0.3710 hn        1 MOL      0.708124
    172 H81        -3.9240    2.7890   -0.8750 h1        1 MOL      0.075867
    173 H82        -2.3150    1.0890   -1.9360 hc        1 MOL      0.103813
    174 H83        -3.0060   -0.0660   -0.7840 hc        1 MOL      0.103813
    175 H84        -2.5820    1.5310    1.1140 hc        1 MOL      0.036172
    176 H85        -1.8260    2.6220   -0.0120 hc        1 MOL      0.036172
    177 N15        -5.7050    0.7910   -2.7960 n         1 MOL     -0.082183
    178 C54        -6.4500    0.8810   -4.0120 c3        1 MOL     -0.405911
    179 H86        -7.2820    0.1780   -3.9800 h1        1 MOL      0.139888
    180 H87        -6.8340    1.8930   -4.1300 h1        1 MOL      0.139888
    181 H88        -5.8020    0.6370   -4.8550 h1        1 MOL      0.139888
    182 H89        -5.8040   -0.0030   -2.1750 hn        1 MOL      0.107895
    183 Ca1         1.8170   -0.7340    1.2630 Ca        1 MOL      1.796956
    184 O25         1.0860   -2.8630    2.9520 oh        1 MOL     -0.886735
    185 H90         0.6920   -3.6110    3.4110 ho        1 MOL      0.402401
    186 H91         1.9860   -2.8340    3.2880 ho        1 MOL      0.402401
    187 O26         0.2940    0.0290    3.5070 oh        1 MOL     -0.886735
    188 H92        -0.4370   -0.4100    3.9630 ho        1 MOL      0.402401
    189 H93         0.7750    0.4620    4.2020 ho        1 MOL      0.402401
@<TRIPOS>BOND
     1    1    2 1   
     2    1    4 1   
     3    1    5 1   
     4    1    6 1   
     5    2    3 2   
     6    2    7 1   
     7    7    8 1   
     8    7   15 1   
     9    8    9 1   
    10    8   11 1   
    11    8   16 1   
    12    9   10 2   
    13    9   19 1   
    14   11   12 1   
    15   11   17 1   
    16   11   18 1   
    17   12   13 1   
    18   12   14 1   
    19   19   20 1   
    20   19   28 1   
    21   20   21 1   
    22   20   23 1   
    23   20   29 1   
    24   21   22 2   
    25   21   41 1   
    26   23   24 1   
    27   23   30 1   
    28   23   31 1   
    29   24   25 1   
    30   24   32 1   
    31   24   33 1   
    32   25   26 1   
    33   25   34 1   
    34   25   35 1   
    35   26   27 1   
    36   26   36 1   
    37   26   37 1   
    38   27   38 1   
    39   27   39 1   
    40   27   40 1   
    41   41   42 1   
    42   41   49 1   
    43   42   43 1   
    44   42   45 1   
    45   42   50 1   
    46   43   44 2   
    47   43   53 1   
    48   45   46 1   
    49   45   51 1   
    50   45   52 1   
    51   46   47 1   
    52   46   48 1   
    53   53   54 1   
    54   53   57 1   
    55   54   55 1   
    56   54   58 1   
    57   54   59 1   
    58   55   56 2   
    59   55   60 1   
    60   60   61 1   
    61   60   68 1   
    62   61   62 1   
    63   61   64 1   
    64   61   69 1   
    65   62   63 2   
    66   62   72 1   
    67   64   65 1   
    68   64   70 1   
    69   64   71 1   
    70   65   66 1   
    71   65   67 1   
    72   72   73 1   
    73   72   76 1   
    74   73   74 1   
    75   73   77 1   
    76   73   78 1   
    77   74   75 2   
    78   74   79 1   
    79   79   80 1   
    80   79   86 1   
    81   80   81 1   
    82   80   83 1   
    83   80   87 1   
    84   81   82 2   
    85   81   93 1   
    86   83   84 1   
    87   83   85 1   
    88   83   88 1   
    89   84   90 1   
    90   84   91 1   
    91   84   92 1   
    92   85   89 1   
    93   93   94 1   
    94   93  101 1   
    95   94   95 1   
    96   94   97 1   
    97   94  102 1   
    98   95   96 2   
    99   95  112 1   
   100   97   98 1   
   101   97   99 1   
   102   97  103 1   
   103   98  100 1   
   104   98  104 1   
   105   98  105 1   
   106   99  106 1   
   107   99  107 1   
   108   99  108 1   
   109  100  109 1   
   110  100  110 1   
   111  100  111 1   
   112  112  113 1   
   113  112  119 1   
   114  113  114 1   
   115  113  116 1   
   116  113  120 1   
   117  114  115 2   
   118  114  126 1   
   119  116  117 1   
   120  116  118 1   
   121  116  121 1   
   122  117  123 1   
   123  117  124 1   
   124  117  125 1   
   125  118  122 1   
   126  126  127 1   
   127  126  133 1   
   128  127  128 1   
   129  127  130 1   
   130  127  134 1   
   131  128  129 2   
   132  128  140 1   
   133  130  131 1   
   134  130  132 1   
   135  130  135 1   
   136  131  137 1   
   137  131  138 1   
   138  131  139 1   
   139  132  136 1   
   140  140  141 1   
   141  140  149 1   
   142  141  142 1   
   143  141  144 1   
   144  141  150 1   
   145  142  143 2   
   146  142  162 1   
   147  144  145 1   
   148  144  151 1   
   149  144  152 1   
   150  145  146 1   
   151  145  153 1   
   152  145  154 1   
   153  146  147 1   
   154  146  155 1   
   155  146  156 1   
   156  147  148 1   
   157  147  157 1   
   158  147  158 1   
   159  148  159 1   
   160  148  160 1   
   161  148  161 1   
   162  162  163 1   
   163  162  171 1   
   164  163  164 1   
   165  163  166 1   
   166  163  172 1   
   167  164  165 2   
   168  164  177 1   
   169  166  167 1   
   170  166  173 1   
   171  166  174 1   
   172  167  168 1   
   173  167  175 1   
   174  167  176 1   
   175  168  169 1   
   176  168  170 1   
   177  177  178 1   
   178  177  182 1   
   179  178  179 1   
   180  178  180 1   
   181  178  181 1   
   182  184  185 1   
   183  184  186 1   
   184  187  188 1   
   185  187  189 1   
@<TRIPOS>SUBSTRUCTURE
     1 MOL         1 TEMP              0 ****  ****    0 ROOT
