@<TRIPOS>MOLECULE
MOL
  179   176     1     0     0
SMALL
resp


@<TRIPOS>ATOM
      1 C1          1.9190    1.6310    6.0750 c3        1 MOL     -0.305438
      2 C2          1.4460    1.4680    4.6370 c         1 MOL      0.849961
      3 O1          2.2500    1.4480    3.7120 o         1 MOL     -0.654521
      4 H1          1.0600    1.6120    6.7450 hc        1 MOL      0.077058
      5 H2          2.5960    0.8150    6.3290 hc        1 MOL      0.077058
      6 H3          2.4410    2.5820    6.1810 hc        1 MOL      0.077058
      7 N1          0.1430    1.5810    4.3220 n         1 MOL     -0.686499
      8 C3         -0.2950    1.8850    2.9260 c3        1 MOL     -0.014236
      9 C4          0.1040    3.2900    2.5010 c         1 MOL      0.633740
     10 O2         -0.2810    4.2880    3.1530 o         1 MOL     -0.602315
     11 C5         -1.8110    1.7580    2.9460 c3        1 MOL      0.046707
     12 C6         -2.4860    1.8220    1.5500 c         1 MOL      0.710585
     13 O3         -1.9470    2.1090    0.4550 o         1 MOL     -0.658452
     14 O4         -3.7110    1.6360    1.6330 o         1 MOL     -0.658452
     15 H4         -0.5460    1.7500    5.0350 hn        1 MOL      0.345383
     16 H5          0.1890    1.1920    2.2410 h1        1 MOL      0.072401
     17 H6         -2.2480    2.5830    3.5030 hc        1 MOL      0.002282
     18 H7         -2.1590    0.9070    3.5170 hc        1 MOL      0.002282
     19 N2          0.6990    3.5000    1.3480 n         1 MOL     -0.367537
     20 C7          1.3640    4.7990    0.8150 c3        1 MOL     -0.130853
     21 C8          0.5200    5.6400   -0.1670 c         1 MOL      0.498863
     22 O5          0.8250    6.7950   -0.3990 o         1 MOL     -0.564194
     23 C9          2.6870    4.3950    0.1530 c3        1 MOL      0.192302
     24 C10         3.7600    5.4460    0.0190 c3        1 MOL     -0.147405
     25 C11         5.1310    4.8110   -0.3050 c3        1 MOL      0.049902
     26 C12         6.1830    5.9100   -0.0050 c3        1 MOL      0.079005
     27 N3          7.4470    5.5520   -0.5990 n4        1 MOL     -0.339444
     28 H8          0.6590    2.6950    0.7260 hn        1 MOL      0.241789
     29 H9          1.5960    5.4700    1.6400 h1        1 MOL      0.115977
     30 H10         2.3320    4.1620   -0.8550 hc        1 MOL      0.007721
     31 H11         3.1370    3.4980    0.5920 hc        1 MOL      0.007721
     32 H12         3.8380    5.8720    1.0230 hc        1 MOL      0.039284
     33 H13         3.4370    6.2490   -0.6460 hc        1 MOL      0.039284
     34 H14         5.1820    4.5140   -1.3490 hc        1 MOL      0.017873
     35 H15         5.2610    3.9120    0.2880 hc        1 MOL      0.017873
     36 H16         6.4400    5.9990    1.0540 hx        1 MOL      0.073306
     37 H17         5.8640    6.8860   -0.3490 hx        1 MOL      0.073306
     38 H18         8.2320    6.1450   -0.3870 hn        1 MOL      0.316164
     39 H19         7.8030    4.6880   -0.2200 hn        1 MOL      0.316164
     40 H20         7.4050    5.5010   -1.6120 hn        1 MOL      0.316164
     41 N4         -0.3830    4.9270   -0.8350 n         1 MOL     -0.147155
     42 C13        -1.3340    5.4910   -1.8530 c3        1 MOL      0.011770
     43 C14        -2.7880    5.6110   -1.4180 c         1 MOL      0.308689
     44 O6         -3.6730    6.3040   -1.8710 o         1 MOL     -0.488480
     45 C15        -1.3320    4.6250   -3.1130 c3        1 MOL     -0.224809
     46 C16        -1.2420    3.1320   -2.8250 c         1 MOL      0.784381
     47 O7         -2.3150    2.4730   -2.8400 o         1 MOL     -0.730247
     48 O8         -0.1670    2.5890   -2.4900 o         1 MOL     -0.730247
     49 H21        -0.3220    3.9170   -0.7250 hn        1 MOL      0.113206
     50 H22        -1.0010    6.4680   -2.1980 h1        1 MOL      0.106633
     51 H23        -0.4430    4.8600   -3.6950 hc        1 MOL      0.057737
     52 H24        -2.1870    4.8780   -3.7380 hc        1 MOL      0.057737
     53 N5         -3.1130    4.8640   -0.3530 n         1 MOL     -0.035637
     54 C17        -4.3930    4.7450    0.2990 c3        1 MOL     -0.037978
     55 C18        -5.4810    3.8620   -0.3640 c         1 MOL      0.570694
     56 O9         -6.5300    4.4100   -0.6420 o         1 MOL     -0.563216
     57 H25        -2.2970    4.5070    0.1210 hn        1 MOL      0.104779
     58 H26        -4.7650    5.7470    0.4790 h1        1 MOL      0.040037
     59 H27        -4.2310    4.3780    1.3150 h1        1 MOL      0.040037
     60 N6         -5.1750    2.5800   -0.6560 n         1 MOL     -0.172876
     61 C19        -6.2390    1.6440   -1.1230 c3        1 MOL     -0.087713
     62 C20        -6.7100    0.5120   -0.1530 c         1 MOL      0.251436
     63 O10        -7.5290   -0.3300   -0.4740 o         1 MOL     -0.429830
     64 C21        -5.8240    1.1560   -2.4880 c3        1 MOL     -0.025136
     65 C22        -4.8850   -0.0330   -2.4220 c         1 MOL      0.547138
     66 N7         -5.3450   -1.0790   -3.0740 n         1 MOL     -0.714029
     67 O11        -3.7730   -0.0340   -1.9970 o         1 MOL     -0.553325
     68 H28        -4.3190    2.2160   -0.2700 hn        1 MOL      0.002917
     69 H29        -7.1670    2.1420   -1.4170 h1        1 MOL      0.133783
     70 H30        -5.4280    1.9860   -3.0760 hc        1 MOL      0.059278
     71 H31        -6.7180    0.8770   -3.0420 hc        1 MOL      0.059278
     72 H32        -6.3200   -1.1670   -3.3240 hn        1 MOL      0.344109
     73 H33        -4.7000   -1.8430   -3.2320 hn        1 MOL      0.344109
     74 N8         -6.2310    0.4910    1.0860 n         1 MOL     -0.059307
     75 C23        -6.5570   -0.4820    2.1230 c3        1 MOL     -0.397513
     76 C24        -5.7000   -1.7820    2.0200 c         1 MOL      0.557925
     77 O12        -6.0020   -2.8400    2.5250 o         1 MOL     -0.519614
     78 H34        -5.4380    1.0870    1.2520 hn        1 MOL      0.156068
     79 H35        -7.6140   -0.7320    2.0280 h1        1 MOL      0.173376
     80 H36        -6.3660   -0.0340    3.1000 h1        1 MOL      0.173376
     81 N9         -4.6500   -1.7320    1.2130 n         1 MOL     -0.293718
     82 C25        -3.6720   -2.8070    1.0220 c3        1 MOL      0.081070
     83 C26        -2.2420   -2.1420    0.9180 c         1 MOL      0.198271
     84 O13        -1.9520   -1.0960    0.3950 o         1 MOL     -0.550013
     85 C27        -4.0030   -3.5250   -0.2920 c3        1 MOL      0.198634
     86 C28        -5.3230   -4.3000   -0.3490 ca        1 MOL     -0.187112
     87 C29        -6.5420   -3.5880   -0.5790 ca        1 MOL     -0.033417
     88 C30        -5.3230   -5.6380   -0.1100 ca        1 MOL     -0.033417
     89 C31        -7.7360   -4.2320   -0.4760 ca        1 MOL     -0.307591
     90 C32        -6.5520   -6.2940   -0.0310 ca        1 MOL     -0.307591
     91 C33        -7.7500   -5.6130   -0.2440 ca        1 MOL      0.419467
     92 O14        -8.8890   -6.3520   -0.2530 oh        1 MOL     -0.473520
     93 H37        -4.3890   -0.9080    0.6990 hn        1 MOL      0.298510
     94 H38        -3.6170   -3.4840    1.8780 h1        1 MOL      0.062282
     95 H39        -3.1530   -4.0120   -0.7610 hc        1 MOL     -0.041709
     96 H40        -4.1960   -2.7440   -1.0440 hc        1 MOL     -0.041709
     97 H41        -6.3420   -2.5290   -0.7070 ha        1 MOL      0.074045
     98 H42        -4.3960   -6.1680    0.0240 ha        1 MOL      0.074045
     99 H43        -8.6300   -3.6330   -0.5370 ha        1 MOL      0.155517
    100 H44        -6.6330   -7.3300    0.2490 ha        1 MOL      0.155517
    101 H45        -8.6730   -7.2920   -0.2390 ho        1 MOL      0.323652
    102 N10        -1.2930   -2.9540    1.3790 n         1 MOL     -0.156192
    103 C34         0.1520   -2.6620    1.3340 c3        1 MOL     -0.147444
    104 C35         0.8090   -3.6380    0.3730 c         1 MOL      0.370749
    105 O15         0.6240   -4.8670    0.4540 o         1 MOL     -0.552193
    106 C36         0.8830   -2.8220    2.7240 c3        1 MOL      0.427832
    107 C37         0.0260   -2.3560    3.8950 c3        1 MOL      0.097143
    108 C38         2.2110   -2.0400    2.7480 c3        1 MOL     -0.509175
    109 C39         0.6570   -2.7440    5.2610 c3        1 MOL     -0.321468
    110 H46        -1.6280   -3.8400    1.7370 hn        1 MOL      0.226334
    111 H47         0.2880   -1.6270    1.0070 h1        1 MOL      0.150102
    112 H48         1.0730   -3.8880    2.8480 hc        1 MOL     -0.049372
    113 H49        -0.9030   -2.9250    3.8220 hc        1 MOL     -0.037152
    114 H50        -0.0890   -1.2790    3.7860 hc        1 MOL     -0.037152
    115 H51         2.0750   -1.0110    2.4400 hc        1 MOL      0.084719
    116 H52         2.8110   -2.1690    3.6460 hc        1 MOL      0.084719
    117 H53         2.9240   -2.4430    2.0240 hc        1 MOL      0.084719
    118 H54         0.9710   -3.7900    5.2700 hc        1 MOL      0.079119
    119 H55         1.5070   -2.0680    5.3750 hc        1 MOL      0.079119
    120 H56         0.0060   -2.5270    6.1060 hc        1 MOL      0.079119
    121 N11         1.7780   -3.1490   -0.3500 n         1 MOL      0.051460
    122 C40         2.6950   -3.9940   -1.2370 c3        1 MOL     -0.173516
    123 C41         4.1930   -3.9920   -0.8630 c         1 MOL      0.527520
    124 O16         4.5440   -3.4190    0.1780 o         1 MOL     -0.443216
    125 C42         2.4250   -3.4860   -2.6710 c3        1 MOL     -0.017177
    126 O17         2.8890   -2.1480   -2.8440 oh        1 MOL     -0.623931
    127 H57         2.1010   -2.1990   -0.2130 hn        1 MOL      0.077038
    128 H58         2.4470   -5.0580   -1.1350 h1        1 MOL      0.098722
    129 H59         1.3630   -3.5060   -2.9040 h1        1 MOL      0.075057
    130 H60         2.9420   -4.0900   -3.4250 h1        1 MOL      0.075057
    131 H61         2.2750   -1.5810   -2.3800 ho        1 MOL      0.489268
    132 N12         5.0470   -4.7080   -1.6280 n         1 MOL     -0.336696
    133 C43         6.3950   -4.9320   -1.2470 c3        1 MOL      0.001539
    134 C44         7.2350   -3.6930   -1.2640 c         1 MOL      0.392722
    135 O18         8.2270   -3.6450   -0.4920 o         1 MOL     -0.495173
    136 C45         6.9700   -5.9990   -2.1890 c3        1 MOL     -0.220060
    137 H62         4.7510   -5.3280   -2.3780 hn        1 MOL      0.253849
    138 H63         6.4240   -5.3040   -0.2240 h1        1 MOL      0.102317
    139 H64         6.4680   -6.9690   -2.0950 hc        1 MOL      0.086212
    140 H65         6.9930   -5.7520   -3.2450 hc        1 MOL      0.086212
    141 H66         7.9860   -6.2880   -1.9160 hc        1 MOL      0.086212
    142 N13         6.9950   -2.7150   -2.1490 n         1 MOL     -0.321425
    143 C46         7.6110   -1.3690   -2.2250 c3        1 MOL      0.096245
    144 C47         7.1220   -0.4770   -1.0620 c         1 MOL      0.370558
    145 O19         7.9170    0.2670   -0.4830 o         1 MOL     -0.517716
    146 C48         7.5210   -0.7220   -3.6230 c3        1 MOL     -0.240038
    147 H67         6.2200   -2.8460   -2.7730 hn        1 MOL      0.250646
    148 H68         8.6840   -1.4370   -2.0520 h1        1 MOL      0.093479
    149 H69         7.7620   -1.4310   -4.4060 hc        1 MOL      0.074831
    150 H70         6.4950   -0.4530   -3.9030 hc        1 MOL      0.074831
    151 H71         8.0770    0.2090   -3.6750 hc        1 MOL      0.074831
    152 N14         5.8710   -0.5710   -0.6950 n         1 MOL     -0.232286
    153 C49         5.3180    0.1460    0.4470 c3        1 MOL      0.005991
    154 C50         5.8140   -0.3710    1.7800 c         1 MOL      0.402570
    155 O20         6.1730    0.4030    2.6550 o         1 MOL     -0.534921
    156 C51         3.7350    0.2010    0.3630 c3        1 MOL     -0.003685
    157 C52         3.1760    0.7540   -0.9640 c3        1 MOL     -0.109364
    158 C53         1.6830    0.4600   -1.0370 c         1 MOL      0.865192
    159 O21         0.8840    1.0900   -0.2900 o         1 MOL     -0.845614
    160 O22         1.2350   -0.4440   -1.8120 o         1 MOL     -0.845614
    161 H72         5.2840   -1.1390   -1.2960 hn        1 MOL      0.171091
    162 H73         5.6960    1.1720    0.4140 h1        1 MOL      0.045889
    163 H74         3.1910    0.7000    1.1540 hc        1 MOL      0.102371
    164 H75         3.4780   -0.8530    0.5140 hc        1 MOL      0.102371
    165 H76         3.4920    0.2860   -1.8990 hc        1 MOL     -0.017734
    166 H77         3.3320    1.8300   -0.9470 hc        1 MOL     -0.017734
    167 N15         6.0650   -1.6960    1.8860 n         1 MOL     -0.005949
    168 C54         6.8340   -2.3480    2.9030 c3        1 MOL     -0.277049
    169 H78         7.7040   -2.8240    2.4520 h1        1 MOL      0.102355
    170 H79         7.1630   -1.6140    3.6390 h1        1 MOL      0.102355
    171 H80         6.2210   -3.1040    3.3940 h1        1 MOL      0.102355
    172 H81         5.7110   -2.2210    1.1050 hn        1 MOL      0.129809
    173 Ca1        -1.2400    0.3700   -1.6080 Ca        1 MOL      1.800909
    174 O23        -1.1130    0.0040   -4.2320 oh        1 MOL     -0.871203
    175 H82        -0.7450   -0.8570   -4.4300 ho        1 MOL      0.418863
    176 H83        -1.4330    0.3340   -5.0660 ho        1 MOL      0.418863
    177 O24        -1.5740   -2.2980   -2.1400 oh        1 MOL     -0.871203
    178 H84        -2.4390   -2.6910   -2.1930 ho        1 MOL      0.418863
    179 H85        -1.0870   -2.7010   -2.8560 ho        1 MOL      0.418863
@<TRIPOS>BOND
     1    1    2 1   
     2    1    4 1   
     3    1    5 1   
     4    1    6 1   
     5    2    3 2   
     6    2    7 1   
     7    7    8 1   
     8    7   15 1   
     9    8    9 1   
    10    8   11 1   
    11    8   16 1   
    12    9   10 2   
    13    9   19 1   
    14   11   12 1   
    15   11   17 1   
    16   11   18 1   
    17   12   13 1   
    18   12   14 1   
    19   19   20 1   
    20   19   28 1   
    21   20   21 1   
    22   20   23 1   
    23   20   29 1   
    24   21   22 2   
    25   21   41 1   
    26   23   24 1   
    27   23   30 1   
    28   23   31 1   
    29   24   25 1   
    30   24   32 1   
    31   24   33 1   
    32   25   26 1   
    33   25   34 1   
    34   25   35 1   
    35   26   27 1   
    36   26   36 1   
    37   26   37 1   
    38   27   38 1   
    39   27   39 1   
    40   27   40 1   
    41   41   42 1   
    42   41   49 1   
    43   42   43 1   
    44   42   45 1   
    45   42   50 1   
    46   43   44 2   
    47   43   53 1   
    48   45   46 1   
    49   45   51 1   
    50   45   52 1   
    51   46   47 1   
    52   46   48 1   
    53   53   54 1   
    54   53   57 1   
    55   54   55 1   
    56   54   58 1   
    57   54   59 1   
    58   55   56 2   
    59   55   60 1   
    60   60   61 1   
    61   60   68 1   
    62   61   62 1   
    63   61   64 1   
    64   61   69 1   
    65   62   63 2   
    66   62   74 1   
    67   64   65 1   
    68   64   70 1   
    69   64   71 1   
    70   65   66 1   
    71   65   67 2   
    72   66   72 1   
    73   66   73 1   
    74   74   75 1   
    75   74   78 1   
    76   75   76 1   
    77   75   79 1   
    78   75   80 1   
    79   76   77 2   
    80   76   81 1   
    81   81   82 1   
    82   81   93 1   
    83   82   83 1   
    84   82   85 1   
    85   82   94 1   
    86   83   84 2   
    87   83  102 1   
    88   85   86 1   
    89   85   95 1   
    90   85   96 1   
    91   86   87 ar  
    92   86   88 ar  
    93   87   89 ar  
    94   87   97 1   
    95   88   90 ar  
    96   88   98 1   
    97   89   91 ar  
    98   89   99 1   
    99   90   91 ar  
   100   90  100 1   
   101   91   92 1   
   102   92  101 1   
   103  102  103 1   
   104  102  110 1   
   105  103  104 1   
   106  103  106 1   
   107  103  111 1   
   108  104  105 2   
   109  104  121 1   
   110  106  107 1   
   111  106  108 1   
   112  106  112 1   
   113  107  109 1   
   114  107  113 1   
   115  107  114 1   
   116  108  115 1   
   117  108  116 1   
   118  108  117 1   
   119  109  118 1   
   120  109  119 1   
   121  109  120 1   
   122  121  122 1   
   123  121  127 1   
   124  122  123 1   
   125  122  125 1   
   126  122  128 1   
   127  123  124 2   
   128  123  132 1   
   129  125  126 1   
   130  125  129 1   
   131  125  130 1   
   132  126  131 1   
   133  132  133 1   
   134  132  137 1   
   135  133  134 1   
   136  133  136 1   
   137  133  138 1   
   138  134  135 2   
   139  134  142 1   
   140  136  139 1   
   141  136  140 1   
   142  136  141 1   
   143  142  143 1   
   144  142  147 1   
   145  143  144 1   
   146  143  146 1   
   147  143  148 1   
   148  144  145 2   
   149  144  152 1   
   150  146  149 1   
   151  146  150 1   
   152  146  151 1   
   153  152  153 1   
   154  152  161 1   
   155  153  154 1   
   156  153  156 1   
   157  153  162 1   
   158  154  155 2   
   159  154  167 1   
   160  156  157 1   
   161  156  163 1   
   162  156  164 1   
   163  157  158 1   
   164  157  165 1   
   165  157  166 1   
   166  158  159 1   
   167  158  160 1   
   168  167  168 1   
   169  167  172 1   
   170  168  169 1   
   171  168  170 1   
   172  168  171 1   
   173  174  175 1   
   174  174  176 1   
   175  177  178 1   
   176  177  179 1   
@<TRIPOS>SUBSTRUCTURE
     1 MOL         1 TEMP              0 ****  ****    0 ROOT
