@<TRIPOS>MOLECULE
MOL
  178   175     1     0     0
SMALL
resp


@<TRIPOS>ATOM
      1 C1         -0.3840    3.5820    5.6030 c3        1 MOL     -0.288744
      2 C2         -0.4620    3.0640    4.1370 c         1 MOL      0.776484
      3 O1          0.2150    3.5170    3.2630 o         1 MOL     -0.602055
      4 H1         -0.7520    2.8120    6.2800 hc        1 MOL      0.071250
      5 H2          0.6500    3.8180    5.8500 hc        1 MOL      0.071250
      6 H3         -0.9970    4.4770    5.7050 hc        1 MOL      0.071250
      7 N1         -1.4960    2.2540    3.7730 n         1 MOL     -0.641084
      8 C3         -1.8030    1.8700    2.4140 c3        1 MOL      0.112034
      9 C4         -2.3550    3.0070    1.5660 c         1 MOL      0.506867
     10 O2         -3.5140    3.3570    1.8550 o         1 MOL     -0.513010
     11 C5         -2.7480    0.6500    2.3840 c3        1 MOL     -0.183787
     12 C6         -3.3100    0.1960    1.0440 c         1 MOL      0.237638
     13 O3         -2.9360    0.8210    0.0400 o         1 MOL     -0.386201
     14 O4         -4.2860   -0.5230    0.9970 o         1 MOL     -0.386201
     15 H4         -2.1250    1.9220    4.4910 hn        1 MOL      0.312086
     16 H5         -0.9050    1.5930    1.8600 h1        1 MOL      0.062828
     17 H6         -3.5550    0.8280    3.0950 hc        1 MOL      0.076471
     18 H7         -2.2710   -0.2010    2.8570 hc        1 MOL      0.076471
     19 N2         -1.5960    3.5870    0.5660 n         1 MOL     -0.209716
     20 C7         -2.0930    4.8000   -0.1120 c3        1 MOL     -0.026410
     21 C8         -3.3030    4.7410   -1.0270 c         1 MOL      0.607802
     22 O5         -3.7430    5.7120   -1.5690 o         1 MOL     -0.574947
     23 C9         -0.8720    5.3760   -0.9370 c3        1 MOL     -0.148362
     24 H8         -0.7210    3.1220    0.3640 hn        1 MOL      0.242488
     25 H9         -2.3570    5.5550    0.6320 h1        1 MOL      0.056738
     26 H10        -0.7570    4.7860   -1.8480 hc        1 MOL      0.047270
     27 H11        -1.0510    6.3750   -1.3350 hc        1 MOL      0.047270
     28 H12         0.0810    5.4520   -0.4180 hc        1 MOL      0.047270
     29 N3         -3.9100    3.5220   -1.1420 n         1 MOL     -0.248023
     30 C10        -5.3010    3.3580   -1.6740 c3        1 MOL      0.099291
     31 C11        -6.3890    2.6830   -0.7830 c         1 MOL      0.257384
     32 O6         -7.4890    2.2660   -1.1630 o         1 MOL     -0.490424
     33 C12        -5.3410    2.7000   -3.0410 c3        1 MOL     -0.123542
     34 C13        -4.7200    1.3820   -3.0290 c         1 MOL      0.723837
     35 O7         -3.4600    1.2430   -3.0400 o         1 MOL     -0.698599
     36 O8         -5.4530    0.3920   -3.0500 o         1 MOL     -0.698599
     37 H13        -3.4930    2.7140   -0.6870 hn        1 MOL     -0.038860
     38 H14        -5.6820    4.3680   -1.8590 h1        1 MOL      0.069104
     39 H15        -4.7590    3.3720   -3.6710 hc        1 MOL      0.029531
     40 H16        -6.3420    2.7240   -3.4720 hc        1 MOL      0.029531
     41 N4         -5.9530    2.4070    0.4890 n         1 MOL      0.048107
     42 C14        -6.6700    1.8710    1.6020 c3        1 MOL     -0.206276
     43 C15        -7.4120    0.4960    1.3610 c         1 MOL      0.454597
     44 O9         -8.0300    0.0090    2.3320 o         1 MOL     -0.590965
     45 H17        -5.0280    2.7910    0.6210 hn        1 MOL      0.010198
     46 H18        -7.3390    2.6770    1.8870 h1        1 MOL      0.112807
     47 H19        -5.9040    1.7750    2.3660 h1        1 MOL      0.112807
     48 N5         -7.3030   -0.2880    0.2530 n         1 MOL     -0.116085
     49 C16        -7.8140   -1.5930   -0.0990 c3        1 MOL     -0.056732
     50 C17        -7.1220   -2.7300    0.7000 c         1 MOL      0.395791
     51 O10        -7.2220   -3.9240    0.4610 o         1 MOL     -0.533010
     52 C18        -7.6700   -1.7630   -1.6600 c3        1 MOL     -0.217536
     53 C19        -8.6340   -0.8860   -2.4400 c         1 MOL      0.625089
     54 N6         -8.1610   -0.0420   -3.3210 n         1 MOL     -0.695663
     55 O11        -9.8750   -1.1030   -2.3450 o         1 MOL     -0.622887
     56 H20        -6.8580    0.1820   -0.5250 hn        1 MOL      0.149483
     57 H21        -8.8820   -1.5930    0.1240 h1        1 MOL      0.109789
     58 H22        -8.0180   -2.7510   -1.9750 hc        1 MOL      0.091322
     59 H23        -6.6600   -1.6140   -2.0390 hc        1 MOL      0.091322
     60 H24        -7.1550    0.0710   -3.3550 hn        1 MOL      0.330517
     61 H25        -8.7250    0.3320   -4.0700 hn        1 MOL      0.330517
     62 N7         -6.2360   -2.3720    1.6260 n         1 MOL     -0.115795
     63 C20        -5.6310   -3.2480    2.6300 c3        1 MOL     -0.209787
     64 C21        -4.2750   -3.8350    2.2880 c         1 MOL      0.541253
     65 O12        -3.8340   -4.7950    2.9080 o         1 MOL     -0.618897
     66 H26        -5.8690   -1.4340    1.5430 hn        1 MOL      0.150915
     67 H27        -6.3920   -3.9750    2.9140 h1        1 MOL      0.103078
     68 H28        -5.5510   -2.6220    3.5270 h1        1 MOL      0.103078
     69 N8         -3.5390   -3.3560    1.3140 n         1 MOL     -0.033074
     70 C22        -2.1970   -3.8440    0.9980 c3        1 MOL     -0.014943
     71 C23        -1.1460   -2.7570    1.0350 c         1 MOL      0.202750
     72 O13        -1.2660   -1.8110    0.3110 o         1 MOL     -0.263370
     73 C24        -2.1970   -4.4410   -0.4070 c3        1 MOL      0.203194
     74 C25        -0.8830   -4.7980   -0.9850 c3        1 MOL     -0.068828
     75 O14        -3.0420   -5.5740   -0.4860 oh        1 MOL     -0.608944
     76 H29        -3.7750   -2.4660    0.9110 hn        1 MOL     -0.015445
     77 H30        -1.8540   -4.6300    1.6750 h1        1 MOL      0.094629
     78 H31        -2.5530   -3.6650   -1.0920 h1        1 MOL      0.033075
     79 H32        -2.7610   -6.1440   -1.1970 ho        1 MOL      0.386695
     80 H33        -0.9580   -5.0950   -2.0330 hc        1 MOL      0.011028
     81 H34        -0.1410   -4.0090   -0.8990 hc        1 MOL      0.011028
     82 H35        -0.5100   -5.7060   -0.5110 hc        1 MOL      0.011028
     83 N9         -0.1440   -3.0320    1.8730 n         1 MOL     -0.332245
     84 C26         1.0610   -2.1720    1.8350 c3        1 MOL      0.107198
     85 C27         2.1080   -2.7280    0.8190 c         1 MOL      0.308003
     86 O15         2.5820   -3.8620    0.9830 o         1 MOL     -0.546045
     87 C28         1.6210   -2.1260    3.2920 c3        1 MOL      0.161052
     88 C29         0.5940   -1.4520    4.2780 c3        1 MOL      0.143989
     89 C30         2.8880   -1.1960    3.3000 c3        1 MOL     -0.179453
     90 C31         1.0940   -1.5650    5.7220 c3        1 MOL     -0.407715
     91 H36        -0.1880   -3.7950    2.5380 hn        1 MOL      0.258726
     92 H37         0.8140   -1.1730    1.4770 h1        1 MOL      0.043648
     93 H38         1.9490   -3.1210    3.5940 hc        1 MOL     -0.021714
     94 H39        -0.3820   -1.9190    4.2040 hc        1 MOL     -0.029972
     95 H40         0.4920   -0.4430    3.8900 hc        1 MOL     -0.029972
     96 H41         3.7450   -1.6750    2.8270 hc        1 MOL      0.016054
     97 H42         2.6400   -0.3300    2.6840 hc        1 MOL      0.016054
     98 H43         3.2750   -0.8030    4.2300 hc        1 MOL      0.016054
     99 H44         1.8780   -0.8290    5.9180 hc        1 MOL      0.093677
    100 H45         0.2610   -1.5730    6.4290 hc        1 MOL      0.093677
    101 H46         1.5010   -2.5720    5.8380 hc        1 MOL      0.093677
    102 N10         2.4290   -1.9070   -0.2270 n         1 MOL      0.023786
    103 C32         3.4240   -2.0700   -1.2410 c3        1 MOL      0.043928
    104 C33         4.7790   -1.4720   -0.6710 c         1 MOL      0.420773
    105 O16         4.7060   -0.6700    0.2370 o         1 MOL     -0.352880
    106 C34         2.9700   -1.3590   -2.5150 c3        1 MOL     -0.032912
    107 C35         1.6200   -1.8910   -3.0350 c         1 MOL      0.582546
    108 O17         0.5500   -1.6440   -2.4080 o         1 MOL     -0.675181
    109 O18         1.6500   -2.4270   -4.1730 o         1 MOL     -0.675181
    110 H47         1.7890   -1.1340   -0.3250 hn        1 MOL      0.086403
    111 H48         3.5950   -3.1370   -1.3610 h1        1 MOL      0.033492
    112 H49         3.7850   -1.4340   -3.2290 hc        1 MOL      0.019589
    113 H50         2.8810   -0.2770   -2.3730 hc        1 MOL      0.019589
    114 N11         5.9640   -1.8760   -1.2060 n         1 MOL     -0.679393
    115 C36         7.2940   -1.4450   -0.7190 c3        1 MOL      0.492594
    116 C37         7.4080    0.0960   -0.6170 c         1 MOL      0.110094
    117 O19         7.9730    0.5170    0.3920 o         1 MOL     -0.428764
    118 C38         8.4070   -2.0650   -1.5040 c3        1 MOL     -0.356798
    119 C39         9.8340   -1.7180   -1.0200 ca        1 MOL      0.219147
    120 C40        10.2470   -2.0010    0.2970 ca        1 MOL     -0.230695
    121 C41        10.8490   -1.2820   -1.9180 ca        1 MOL     -0.230695
    122 C42        11.6240   -1.7990    0.6530 ca        1 MOL     -0.001621
    123 C43        12.0780   -0.8650   -1.5170 ca        1 MOL     -0.001621
    124 C44        12.5600   -1.2870   -0.2700 ca        1 MOL     -0.258633
    125 H51         5.9490   -2.3670   -2.0940 hn        1 MOL      0.322756
    126 H52         7.3270   -1.8080    0.3150 h1        1 MOL      0.057105
    127 H53         8.2920   -1.6910   -2.5260 hc        1 MOL      0.098779
    128 H54         8.2640   -3.1430   -1.5220 hc        1 MOL      0.098779
    129 H55         9.4780   -2.3130    0.9850 ha        1 MOL      0.112929
    130 H56        10.6510   -1.1240   -2.9740 ha        1 MOL      0.112929
    131 H57        11.8470   -1.9350    1.7070 ha        1 MOL      0.090648
    132 H58        12.7030   -0.3720   -2.2410 ha        1 MOL      0.090648
    133 H59        13.5140   -0.9770    0.1370 ha        1 MOL      0.136705
    134 N12         7.0040    0.9120   -1.6070 n         1 MOL     -0.021851
    135 C45         6.9540    2.3550   -1.4470 c3        1 MOL      0.125722
    136 C46         6.0910    2.8020   -0.2080 c         1 MOL      0.136519
    137 O20         6.6280    3.5870    0.5890 o         1 MOL     -0.452771
    138 C47         6.2550    2.9780   -2.6530 c3        1 MOL      0.006782
    139 C48         6.5960    1.9210   -3.6480 c3        1 MOL     -0.077040
    140 C49         6.6450    0.5700   -2.9780 c3        1 MOL      0.049297
    141 H60         7.9390    2.8030   -1.3220 h1        1 MOL      0.048727
    142 H61         5.1690    3.1010   -2.7100 hc        1 MOL      0.034710
    143 H62         6.7130    3.9310   -2.8890 hc        1 MOL      0.034710
    144 H63         5.9270    1.8880   -4.5160 hc        1 MOL      0.015932
    145 H64         7.6510    2.1190   -3.8610 hc        1 MOL      0.015932
    146 H65         5.7040    0.0240   -3.0050 h1        1 MOL      0.004555
    147 H66         7.3450   -0.1420   -3.4130 h1        1 MOL      0.004555
    148 N13         4.9300    2.1870   -0.0460 n         1 MOL     -0.107989
    149 C50         4.0670    2.5520    1.0870 c3        1 MOL     -0.101914
    150 C51         4.6370    2.0720    2.5200 c         1 MOL      0.301976
    151 O21         4.5160    2.7310    3.5340 o         1 MOL     -0.538191
    152 C52         2.6020    2.0300    0.8930 c3        1 MOL      0.132387
    153 C53         1.9510    2.4520   -0.4290 c3        1 MOL     -0.359999
    154 C54         0.7370    1.6400   -0.7810 c         1 MOL      0.760846
    155 O22         0.4880    0.5680   -0.2180 o         1 MOL     -0.737243
    156 O23        -0.0710    1.9740   -1.6870 o         1 MOL     -0.737243
    157 H67         4.6410    1.5430   -0.7770 hn        1 MOL      0.185395
    158 H68         3.8910    3.6200    1.1600 h1        1 MOL      0.123423
    159 H69         2.0140    2.4110    1.7320 hc        1 MOL      0.027966
    160 H70         2.5490    0.9420    0.9970 hc        1 MOL      0.027966
    161 H71         2.6140    2.3820   -1.2910 hc        1 MOL      0.075373
    162 H72         1.6110    3.4760   -0.3540 hc        1 MOL      0.075373
    163 N14         5.3800    0.9560    2.5770 n         1 MOL      0.233519
    164 C55         6.2260    0.6310    3.6890 c3        1 MOL     -0.150730
    165 H73         5.9390   -0.3410    4.0910 h1        1 MOL      0.045911
    166 H74         7.2630    0.5940    3.3590 h1        1 MOL      0.045911
    167 H75         6.1160    1.3900    4.4640 h1        1 MOL      0.045911
    168 H76         5.5210    0.3980    1.7420 hn        1 MOL      0.000086
    169 Ca1        -1.5060   -0.1710   -1.8170 Ca        1 MOL      1.650701
    170 O24        -3.8830   -1.4490   -1.5010 oh        1 MOL     -0.812913
    171 H77        -4.5740   -1.1060   -2.0760 ho        1 MOL      0.393423
    172 H78        -4.1920   -1.2800   -0.6150 ho        1 MOL      0.393423
    173 O25        -0.6390    0.3270   -4.1850 oh        1 MOL     -0.812913
    174 H79         0.1830   -0.1290   -4.3810 ho        1 MOL      0.393423
    175 H80        -0.8560    0.7850   -5.0000 ho        1 MOL      0.393423
    176 O26        -1.9020   -2.4190   -3.5800 oh        1 MOL     -0.812913
    177 H81        -0.9470   -2.4480   -3.4660 ho        1 MOL      0.393423
    178 H82        -2.0390   -2.5850   -4.5170 ho        1 MOL      0.393423
@<TRIPOS>BOND
     1    1    2 1   
     2    1    4 1   
     3    1    5 1   
     4    1    6 1   
     5    2    3 2   
     6    2    7 1   
     7    7    8 1   
     8    7   15 1   
     9    8    9 1   
    10    8   11 1   
    11    8   16 1   
    12    9   10 2   
    13    9   19 1   
    14   11   12 1   
    15   11   17 1   
    16   11   18 1   
    17   12   13 1   
    18   12   14 1   
    19   19   20 1   
    20   19   24 1   
    21   20   21 1   
    22   20   23 1   
    23   20   25 1   
    24   21   22 2   
    25   21   29 1   
    26   23   26 1   
    27   23   27 1   
    28   23   28 1   
    29   29   30 1   
    30   29   37 1   
    31   30   31 1   
    32   30   33 1   
    33   30   38 1   
    34   31   32 2   
    35   31   41 1   
    36   33   34 1   
    37   33   39 1   
    38   33   40 1   
    39   34   35 1   
    40   34   36 1   
    41   41   42 1   
    42   41   45 1   
    43   42   43 1   
    44   42   46 1   
    45   42   47 1   
    46   43   44 2   
    47   43   48 1   
    48   48   49 1   
    49   48   56 1   
    50   49   50 1   
    51   49   52 1   
    52   49   57 1   
    53   50   51 2   
    54   50   62 1   
    55   52   53 1   
    56   52   58 1   
    57   52   59 1   
    58   53   54 1   
    59   53   55 2   
    60   54   60 1   
    61   54   61 1   
    62   62   63 1   
    63   62   66 1   
    64   63   64 1   
    65   63   67 1   
    66   63   68 1   
    67   64   65 2   
    68   64   69 1   
    69   69   70 1   
    70   69   76 1   
    71   70   71 1   
    72   70   73 1   
    73   70   77 1   
    74   71   72 2   
    75   71   83 1   
    76   73   74 1   
    77   73   75 1   
    78   73   78 1   
    79   74   80 1   
    80   74   81 1   
    81   74   82 1   
    82   75   79 1   
    83   83   84 1   
    84   83   91 1   
    85   84   85 1   
    86   84   87 1   
    87   84   92 1   
    88   85   86 2   
    89   85  102 1   
    90   87   88 1   
    91   87   89 1   
    92   87   93 1   
    93   88   90 1   
    94   88   94 1   
    95   88   95 1   
    96   89   96 1   
    97   89   97 1   
    98   89   98 1   
    99   90   99 1   
   100   90  100 1   
   101   90  101 1   
   102  102  103 1   
   103  102  110 1   
   104  103  104 1   
   105  103  106 1   
   106  103  111 1   
   107  104  105 2   
   108  104  114 1   
   109  106  107 1   
   110  106  112 1   
   111  106  113 1   
   112  107  108 1   
   113  107  109 1   
   114  114  115 1   
   115  114  125 1   
   116  115  116 1   
   117  115  118 1   
   118  115  126 1   
   119  116  117 2   
   120  116  134 1   
   121  118  119 1   
   122  118  127 1   
   123  118  128 1   
   124  119  120 ar  
   125  119  121 ar  
   126  120  122 ar  
   127  120  129 1   
   128  121  123 ar  
   129  121  130 1   
   130  122  124 ar  
   131  122  131 1   
   132  123  124 ar  
   133  123  132 1   
   134  124  133 1   
   135  134  135 1   
   136  134  140 1   
   137  135  136 1   
   138  135  138 1   
   139  135  141 1   
   140  136  137 2   
   141  136  148 1   
   142  138  139 1   
   143  138  142 1   
   144  138  143 1   
   145  139  140 1   
   146  139  144 1   
   147  139  145 1   
   148  140  146 1   
   149  140  147 1   
   150  148  149 1   
   151  148  157 1   
   152  149  150 1   
   153  149  152 1   
   154  149  158 1   
   155  150  151 2   
   156  150  163 1   
   157  152  153 1   
   158  152  159 1   
   159  152  160 1   
   160  153  154 1   
   161  153  161 1   
   162  153  162 1   
   163  154  155 1   
   164  154  156 1   
   165  163  164 1   
   166  163  168 1   
   167  164  165 1   
   168  164  166 1   
   169  164  167 1   
   170  170  171 1   
   171  170  172 1   
   172  173  174 1   
   173  173  175 1   
   174  176  177 1   
   175  176  178 1   
@<TRIPOS>SUBSTRUCTURE
     1 MOL         1 TEMP              0 ****  ****    0 ROOT
