@<TRIPOS>MOLECULE
MOL
  189   185     1     0     0
SMALL
resp


@<TRIPOS>ATOM
      1 C1         -0.1230    2.8910    5.8330 c3        1 MOL     -0.247306
      2 C2         -0.4640    2.4070    4.4180 c         1 MOL      0.713327
      3 O1          0.3300    2.6700    3.5360 o         1 MOL     -0.647489
      4 H1          0.9160    3.2200    5.8630 hc        1 MOL      0.063025
      5 H2         -0.7750    3.7220    6.1020 hc        1 MOL      0.063025
      6 H3         -0.2650    2.0740    6.5410 hc        1 MOL      0.063025
      7 N1         -1.6400    1.8660    4.1610 n         1 MOL     -0.607361
      8 C3         -2.1780    1.5580    2.7790 c3        1 MOL      0.168619
      9 C4         -2.4500    2.9130    2.0590 c         1 MOL      0.438009
     10 O2         -3.5110    3.5080    2.2680 o         1 MOL     -0.558124
     11 C5         -3.4060    0.5510    2.7990 c3        1 MOL     -0.168835
     12 C6         -3.9680    0.1540    1.4110 c         1 MOL      0.674414
     13 O3         -4.9670   -0.6240    1.4180 o         1 MOL     -0.656825
     14 O4         -3.4470    0.5790    0.3770 o         1 MOL     -0.656825
     15 H4         -2.2390    1.6600    4.9480 hn        1 MOL      0.321122
     16 H5         -1.3680    1.0860    2.2210 h1        1 MOL     -0.054664
     17 H6         -4.2130    0.9320    3.4370 hc        1 MOL      0.061399
     18 H7         -3.1070   -0.3310    3.3630 hc        1 MOL      0.061399
     19 N2         -1.5670    3.3650    1.1790 n         1 MOL     -0.092922
     20 C7         -1.5390    4.6850    0.4500 c3        1 MOL     -0.293126
     21 C8         -2.5350    4.8940   -0.6970 c         1 MOL      0.705378
     22 O5         -2.8260    5.9980   -1.1020 o         1 MOL     -0.552427
     23 C9         -0.0530    4.9660    0.0410 c3        1 MOL      0.285297
     24 C10         0.5170    6.1690   -0.7780 c3        1 MOL     -0.145343
     25 C11         0.1880    7.5730   -0.1160 c3        1 MOL     -0.017514
     26 C12         0.7730    7.7300    1.3130 c3        1 MOL      0.099684
     27 N3          0.8680    9.1180    1.7050 n4        1 MOL     -0.474720
     28 H8         -0.7470    2.7990    1.0660 hn        1 MOL      0.297543
     29 H9         -1.7980    5.4390    1.1940 h1        1 MOL      0.096816
     30 H10         0.3430    4.1040   -0.4940 hc        1 MOL     -0.053087
     31 H11         0.4490    4.9920    1.0110 hc        1 MOL     -0.053087
     32 H12         0.0080    6.2290   -1.7370 hc        1 MOL      0.047237
     33 H13         1.6120    6.1260   -0.7390 hc        1 MOL      0.047237
     34 H14        -0.8930    7.7180   -0.1180 hc        1 MOL      0.022577
     35 H15         0.6040    8.3350   -0.7680 hc        1 MOL      0.022577
     36 H16         1.7840    7.3260    1.3410 hx        1 MOL      0.076007
     37 H17         0.1040    7.2420    2.0290 hx        1 MOL      0.076007
     38 H18         0.0140    9.4670    2.1080 hn        1 MOL      0.354502
     39 H19         1.6200    9.1790    2.3800 hn        1 MOL      0.354502
     40 H20         1.0980    9.6890    0.9090 hn        1 MOL      0.354502
     41 N4         -3.2290    3.7530   -1.0920 n         1 MOL     -0.435317
     42 C13        -4.3680    3.7350   -2.0700 c3        1 MOL     -0.006279
     43 C14        -5.5470    2.9560   -1.6240 c         1 MOL      0.486156
     44 O6         -6.6060    3.0100   -2.2740 o         1 MOL     -0.552128
     45 C15        -3.8790    3.3780   -3.5040 c3        1 MOL     -0.246090
     46 C16        -3.1170    2.1250   -3.5480 c         1 MOL      0.865995
     47 O7         -3.4040    1.2390   -2.7620 o         1 MOL     -0.754715
     48 O8         -2.2040    2.0440   -4.4190 o         1 MOL     -0.754715
     49 H21        -2.9870    2.8590   -0.6900 hn        1 MOL      0.066593
     50 H22        -4.7690    4.7450   -2.1090 h1        1 MOL      0.108097
     51 H23        -3.2360    4.2110   -3.7750 hc        1 MOL      0.076487
     52 H24        -4.7360    3.3560   -4.1870 hc        1 MOL      0.076487
     53 N5         -5.5700    2.2350   -0.4930 n         1 MOL     -0.190722
     54 C17        -6.7990    1.7880    0.2090 c3        1 MOL     -0.348046
     55 C18        -7.3880    0.5820   -0.5460 c         1 MOL      0.533026
     56 O9         -8.6450    0.3340   -0.4540 o         1 MOL     -0.580621
     57 H25        -4.6890    1.9390   -0.0870 hn        1 MOL      0.220944
     58 H26        -7.5870    2.5370    0.2200 h1        1 MOL      0.160345
     59 H27        -6.5350    1.4590    1.2250 h1        1 MOL      0.160345
     60 N6         -6.5860   -0.1380   -1.3300 n         1 MOL     -0.158516
     61 C19        -7.0340   -1.4480   -1.9550 c3        1 MOL     -0.297846
     62 C20        -7.0750   -2.5780   -0.9300 c         1 MOL      0.525800
     63 O10        -7.4120   -3.7120   -1.3810 o         1 MOL     -0.543303
     64 C21        -6.0550   -1.9480   -3.0430 c3        1 MOL      0.091082
     65 C22        -4.5220   -1.9810   -2.7690 c         1 MOL      0.609629
     66 O11        -3.8920   -2.1690   -3.8140 o         1 MOL     -0.643824
     67 O12        -4.0530   -1.9910   -1.6200 o         1 MOL     -0.643824
     68 H28        -5.6080    0.0930   -1.3760 hn        1 MOL      0.194775
     69 H29        -7.9710   -1.2110   -2.4510 h1        1 MOL      0.168310
     70 H30        -6.1520   -1.1880   -3.8180 hc        1 MOL      0.012104
     71 H31        -6.4070   -2.8580   -3.5360 hc        1 MOL      0.012104
     72 N7         -6.8010   -2.3090    0.3380 n         1 MOL     -0.306351
     73 C23        -6.7630   -3.3960    1.3370 c3        1 MOL     -0.128945
     74 C24        -5.3550   -4.0250    1.4660 c         1 MOL      0.621592
     75 O13        -5.3900   -5.1270    1.9450 o         1 MOL     -0.596550
     76 H32        -6.2770   -1.4760    0.5380 hn        1 MOL      0.277040
     77 H33        -7.4970   -4.1180    0.9820 h1        1 MOL      0.088788
     78 H34        -6.9810   -2.9770    2.3170 h1        1 MOL      0.088788
     79 N8         -4.2770   -3.4350    1.0310 n         1 MOL     -0.332059
     80 C25        -2.9480   -4.1630    0.9780 c3        1 MOL     -0.141261
     81 C26        -1.7720   -3.1450    1.0280 c         1 MOL      0.664872
     82 O14        -1.8790   -2.0750    0.4220 o         1 MOL     -0.611806
     83 C27        -2.7500   -5.0570   -0.2960 c3        1 MOL      0.530598
     84 C28        -3.1740   -6.5070   -0.0160 c3        1 MOL     -0.562264
     85 O15        -3.4890   -4.5910   -1.3280 oh        1 MOL     -0.574023
     86 H35        -4.2700   -2.4510    0.8070 hn        1 MOL      0.202792
     87 H36        -2.9890   -4.7970    1.8690 h1        1 MOL      0.081022
     88 H37        -1.6900   -5.1310   -0.5060 h1        1 MOL     -0.081611
     89 H38        -3.5460   -3.6520   -1.1270 ho        1 MOL      0.383524
     90 H39        -2.6520   -6.9090    0.8480 hc        1 MOL      0.144308
     91 H40        -4.2270   -6.4390    0.2370 hc        1 MOL      0.144308
     92 H41        -3.1950   -7.1420   -0.9030 hc        1 MOL      0.144308
     93 N9         -0.7090   -3.4760    1.7980 n         1 MOL     -0.651374
     94 C29         0.5510   -2.8020    1.9500 c3        1 MOL      0.055628
     95 C30         1.6170   -3.4560    1.1470 c         1 MOL      0.553899
     96 O16         2.0580   -4.5490    1.4200 o         1 MOL     -0.532596
     97 C31         0.9010   -2.6430    3.4570 c3        1 MOL     -0.023659
     98 C32        -0.1190   -1.7120    4.1500 c3        1 MOL     -0.051491
     99 C33         2.4000   -2.3060    3.7070 c3        1 MOL     -0.078085
    100 C34         0.2250   -1.5930    5.6380 c3        1 MOL     -0.188029
    101 H42        -0.6400   -4.3420    2.3290 hn        1 MOL      0.332713
    102 H43         0.3830   -1.8220    1.5280 h1        1 MOL      0.156114
    103 H44         0.7150   -3.6070    3.9310 hc        1 MOL      0.037686
    104 H45        -1.1800   -1.9210    4.0730 hc        1 MOL      0.058437
    105 H46        -0.0810   -0.6970    3.7740 hc        1 MOL      0.058437
    106 H47         2.7080   -2.0790    4.7280 hc        1 MOL      0.005614
    107 H48         2.9840   -3.1910    3.4370 hc        1 MOL      0.005614
    108 H49         2.7710   -1.5850    2.9760 hc        1 MOL      0.005614
    109 H50        -0.6040   -1.1710    6.2090 hc        1 MOL      0.051754
    110 H51         0.2790   -2.5780    6.1090 hc        1 MOL      0.051754
    111 H52         1.1680   -1.1130    5.9090 hc        1 MOL      0.051754
    112 N10         2.0860   -2.7220    0.0730 n         1 MOL     -0.302323
    113 C35         3.2320   -2.9460   -0.8460 c3        1 MOL     -0.019789
    114 C36         4.5470   -2.6860   -0.0750 c         1 MOL      0.310275
    115 O17         4.6140   -1.9730    0.9760 o         1 MOL     -0.253954
    116 C37         3.2590   -2.0980   -2.1100 c3        1 MOL      0.212447
    117 C38         2.0620   -2.4060   -2.9670 c3        1 MOL     -0.192228
    118 O18         3.2060   -0.7700   -1.7990 oh        1 MOL     -0.594212
    119 H53         1.5640   -1.8620   -0.0570 hn        1 MOL      0.206249
    120 H54         3.3320   -3.9730   -1.1850 h1        1 MOL      0.063703
    121 H55         4.2070   -2.2570   -2.6250 h1        1 MOL      0.021777
    122 H56         2.2770   -0.5740   -1.6140 ho        1 MOL      0.376511
    123 H57         2.4080   -3.1730   -3.6560 hc        1 MOL      0.053946
    124 H58         1.2380   -2.8100   -2.3770 hc        1 MOL      0.053946
    125 H59         1.6630   -1.5910   -3.5600 hc        1 MOL      0.053946
    126 N11         5.6850   -3.1370   -0.6600 n         1 MOL     -0.297959
    127 C39         7.0480   -2.8790   -0.0790 c3        1 MOL     -0.030074
    128 C40         7.2670   -1.3560    0.2530 c         1 MOL      0.174377
    129 O19         7.7800   -1.0250    1.3440 o         1 MOL     -0.449471
    130 C41         8.1740   -3.3270   -1.0790 c3        1 MOL      0.221947
    131 C42         8.2180   -4.8430   -1.3730 c3        1 MOL     -0.380180
    132 O20         7.9450   -2.7550   -2.3170 oh        1 MOL     -0.633743
    133 H60         5.6520   -3.7060   -1.4960 hn        1 MOL      0.268219
    134 H61         7.2130   -3.4130    0.8600 h1        1 MOL      0.126673
    135 H62         9.1820   -3.0670   -0.7480 h1        1 MOL      0.059082
    136 H63         8.7960   -2.4320   -2.6230 ho        1 MOL      0.422233
    137 H64         8.8680   -5.0480   -2.2190 hc        1 MOL      0.112528
    138 H65         8.6100   -5.4440   -0.5510 hc        1 MOL      0.112528
    139 H66         7.2320   -5.3240   -1.3400 hc        1 MOL      0.112528
    140 N12         6.8740   -0.5080   -0.6280 n         1 MOL     -0.072417
    141 C43         7.0920    0.9560   -0.4900 c3        1 MOL      0.008797
    142 C44         6.2350    1.4840    0.6800 c         1 MOL      0.332153
    143 O21         6.6560    2.3880    1.4490 o         1 MOL     -0.500186
    144 C45         6.7270    1.7500   -1.7850 c3        1 MOL     -0.277187
    145 C46         7.6720    1.4110   -2.9030 c3        1 MOL      0.174679
    146 C47         7.0610    1.7530   -4.3160 c3        1 MOL     -0.100886
    147 C48         8.0630    1.4440   -5.4980 c3        1 MOL      0.122051
    148 N13         9.3740    2.0980   -5.4100 n4        1 MOL     -0.191970
    149 H67         6.6380   -0.7790   -1.5720 hn        1 MOL      0.268470
    150 H68         8.1210    1.1450   -0.1950 h1        1 MOL      0.084166
    151 H69         6.7540    2.8290   -1.6310 hc        1 MOL      0.101818
    152 H70         5.7310    1.4430   -2.0930 hc        1 MOL      0.101818
    153 H71         7.9770    0.3650   -2.8680 hc        1 MOL     -0.056581
    154 H72         8.5790    2.0030   -2.8260 hc        1 MOL     -0.056581
    155 H73         6.8230    2.8070   -4.4740 hc        1 MOL      0.065686
    156 H74         6.1690    1.1290   -4.3820 hc        1 MOL      0.065686
    157 H75         7.5180    1.7580   -6.3820 hx        1 MOL      0.038462
    158 H76         8.3020    0.3880   -5.6250 hx        1 MOL      0.038462
    159 H77        10.0350    1.6070   -4.8280 hn        1 MOL      0.245285
    160 H78         9.8520    2.0830   -6.2980 hn        1 MOL      0.245285
    161 H79         9.2730    3.0540   -5.0800 hn        1 MOL      0.245285
    162 N14         5.0510    0.8780    0.8850 n         1 MOL     -0.077702
    163 C49         4.0300    1.2990    1.9590 c3        1 MOL     -0.149042
    164 C50         4.5110    0.7540    3.3090 c         1 MOL      0.403179
    165 O22         4.5190    1.4660    4.3270 o         1 MOL     -0.560791
    166 C51         2.6040    0.7410    1.5700 c3        1 MOL      0.048257
    167 C52         1.9650    1.4890    0.3810 c3        1 MOL      0.157704
    168 C53         0.6960    0.7810   -0.1830 c         1 MOL      0.568977
    169 O23         0.7060   -0.3460   -0.6910 o         1 MOL     -0.667554
    170 O24        -0.3710    1.4030   -0.2570 o         1 MOL     -0.667554
    171 H80         4.7870    0.1160    0.2740 hn        1 MOL      0.084427
    172 H81         4.0320    2.3830    1.9980 h1        1 MOL      0.119668
    173 H82         1.8730    0.7990    2.3700 hc        1 MOL      0.022210
    174 H83         2.7250   -0.2450    1.1230 hc        1 MOL      0.022210
    175 H84         2.6510    1.7270   -0.4250 hc        1 MOL     -0.070258
    176 H85         1.6400    2.4890    0.6820 hc        1 MOL     -0.070258
    177 N15         5.1660   -0.3820    3.3600 n         1 MOL      0.091722
    178 C54         5.8530   -0.9380    4.5770 c3        1 MOL     -0.413488
    179 H86         6.8960   -0.6180    4.5840 h1        1 MOL      0.143585
    180 H87         5.3560   -0.5710    5.4750 h1        1 MOL      0.143585
    181 H88         5.8080   -2.0270    4.5550 h1        1 MOL      0.143585
    182 H89         5.2450   -0.8270    2.4610 hn        1 MOL      0.050136
    183 Ca1        -1.9880   -0.3770   -1.5440 Ca        1 MOL      1.783102
    184 O25        -1.4520   -2.7660   -2.5470 oh        1 MOL     -0.913651
    185 H90        -0.9860   -2.8520   -3.3810 ho        1 MOL      0.423391
    186 H91        -2.2140   -3.3420   -2.6350 ho        1 MOL      0.423391
    187 O26        -0.5910   -0.0870   -3.9940 oh        1 MOL     -0.913651
    188 H92         0.0210   -0.3610   -4.6730 ho        1 MOL      0.423391
    189 H93        -0.8400    0.8080   -4.2460 ho        1 MOL      0.423391
@<TRIPOS>BOND
     1    1    2 1   
     2    1    4 1   
     3    1    5 1   
     4    1    6 1   
     5    2    3 2   
     6    2    7 1   
     7    7    8 1   
     8    7   15 1   
     9    8    9 1   
    10    8   11 1   
    11    8   16 1   
    12    9   10 2   
    13    9   19 1   
    14   11   12 1   
    15   11   17 1   
    16   11   18 1   
    17   12   13 1   
    18   12   14 1   
    19   19   20 1   
    20   19   28 1   
    21   20   21 1   
    22   20   23 1   
    23   20   29 1   
    24   21   22 2   
    25   21   41 1   
    26   23   24 1   
    27   23   30 1   
    28   23   31 1   
    29   24   25 1   
    30   24   32 1   
    31   24   33 1   
    32   25   26 1   
    33   25   34 1   
    34   25   35 1   
    35   26   27 1   
    36   26   36 1   
    37   26   37 1   
    38   27   38 1   
    39   27   39 1   
    40   27   40 1   
    41   41   42 1   
    42   41   49 1   
    43   42   43 1   
    44   42   45 1   
    45   42   50 1   
    46   43   44 2   
    47   43   53 1   
    48   45   46 1   
    49   45   51 1   
    50   45   52 1   
    51   46   47 1   
    52   46   48 1   
    53   53   54 1   
    54   53   57 1   
    55   54   55 1   
    56   54   58 1   
    57   54   59 1   
    58   55   56 2   
    59   55   60 1   
    60   60   61 1   
    61   60   68 1   
    62   61   62 1   
    63   61   64 1   
    64   61   69 1   
    65   62   63 2   
    66   62   72 1   
    67   64   65 1   
    68   64   70 1   
    69   64   71 1   
    70   65   66 1   
    71   65   67 1   
    72   72   73 1   
    73   72   76 1   
    74   73   74 1   
    75   73   77 1   
    76   73   78 1   
    77   74   75 2   
    78   74   79 1   
    79   79   80 1   
    80   79   86 1   
    81   80   81 1   
    82   80   83 1   
    83   80   87 1   
    84   81   82 2   
    85   81   93 1   
    86   83   84 1   
    87   83   85 1   
    88   83   88 1   
    89   84   90 1   
    90   84   91 1   
    91   84   92 1   
    92   85   89 1   
    93   93   94 1   
    94   93  101 1   
    95   94   95 1   
    96   94   97 1   
    97   94  102 1   
    98   95   96 2   
    99   95  112 1   
   100   97   98 1   
   101   97   99 1   
   102   97  103 1   
   103   98  100 1   
   104   98  104 1   
   105   98  105 1   
   106   99  106 1   
   107   99  107 1   
   108   99  108 1   
   109  100  109 1   
   110  100  110 1   
   111  100  111 1   
   112  112  113 1   
   113  112  119 1   
   114  113  114 1   
   115  113  116 1   
   116  113  120 1   
   117  114  115 2   
   118  114  126 1   
   119  116  117 1   
   120  116  118 1   
   121  116  121 1   
   122  117  123 1   
   123  117  124 1   
   124  117  125 1   
   125  118  122 1   
   126  126  127 1   
   127  126  133 1   
   128  127  128 1   
   129  127  130 1   
   130  127  134 1   
   131  128  129 2   
   132  128  140 1   
   133  130  131 1   
   134  130  132 1   
   135  130  135 1   
   136  131  137 1   
   137  131  138 1   
   138  131  139 1   
   139  132  136 1   
   140  140  141 1   
   141  140  149 1   
   142  141  142 1   
   143  141  144 1   
   144  141  150 1   
   145  142  143 2   
   146  142  162 1   
   147  144  145 1   
   148  144  151 1   
   149  144  152 1   
   150  145  146 1   
   151  145  153 1   
   152  145  154 1   
   153  146  147 1   
   154  146  155 1   
   155  146  156 1   
   156  147  148 1   
   157  147  157 1   
   158  147  158 1   
   159  148  159 1   
   160  148  160 1   
   161  148  161 1   
   162  162  163 1   
   163  162  171 1   
   164  163  164 1   
   165  163  166 1   
   166  163  172 1   
   167  164  165 2   
   168  164  177 1   
   169  166  167 1   
   170  166  173 1   
   171  166  174 1   
   172  167  168 1   
   173  167  175 1   
   174  167  176 1   
   175  168  169 1   
   176  168  170 1   
   177  177  178 1   
   178  177  182 1   
   179  178  179 1   
   180  178  180 1   
   181  178  181 1   
   182  184  185 1   
   183  184  186 1   
   184  187  188 1   
   185  187  189 1   
@<TRIPOS>SUBSTRUCTURE
     1 MOL         1 TEMP              0 ****  ****    0 ROOT
