@<TRIPOS>MOLECULE
MOL
  189   185     1     0     0
SMALL
resp


@<TRIPOS>ATOM
      1 C1          0.4850    3.3240   -5.4340 c3        1 MOL     -0.537294
      2 C2          0.8290    3.0570   -3.9050 c         1 MOL      0.771660
      3 O1         -0.1020    3.1780   -3.1220 o         1 MOL     -0.565993
      4 H1          0.5910    2.3980   -5.9980 hc        1 MOL      0.132776
      5 H2         -0.5400    3.6850   -5.5180 hc        1 MOL      0.132776
      6 H3          1.1670    4.0730   -5.8350 hc        1 MOL      0.132776
      7 N1          2.1150    2.6500   -3.6240 n         1 MOL     -0.737578
      8 C3          2.6310    2.1650   -2.2990 c3        1 MOL      0.275357
      9 C4          3.0160    3.2540   -1.3190 c         1 MOL      0.357826
     10 O2          4.1230    3.6880   -1.3360 o         1 MOL     -0.526470
     11 C5          3.7460    1.1420   -2.5080 c3        1 MOL     -0.234272
     12 C6          4.1560    0.4800   -1.1820 c         1 MOL      0.602587
     13 O3          5.1830   -0.2460   -1.2200 o         1 MOL     -0.643824
     14 O4          3.4500    0.6240   -0.1210 o         1 MOL     -0.643824
     15 H4          2.7260    2.5440   -4.4200 hn        1 MOL      0.347708
     16 H5          1.8180    1.6030   -1.8360 h1        1 MOL      0.013356
     17 H6          4.5930    1.7020   -2.9080 hc        1 MOL      0.076805
     18 H7          3.4770    0.3650   -3.2250 hc        1 MOL      0.076805
     19 N2          2.0710    3.7230   -0.4890 n         1 MOL      0.197054
     20 C7          2.1320    4.9300    0.2870 c3        1 MOL     -0.136492
     21 C8          3.0100    4.8550    1.5140 c         1 MOL      0.590032
     22 O5          3.2080    5.8630    2.1350 o         1 MOL     -0.587188
     23 C9          0.7200    5.3590    0.6200 c3        1 MOL     -0.124113
     24 C10        -0.1780    5.6140   -0.5670 c3        1 MOL      0.262469
     25 C11         0.4370    6.3580   -1.7450 c3        1 MOL      0.036125
     26 C12        -0.7650    6.5610   -2.6010 c3        1 MOL      0.091961
     27 N3         -0.4550    7.4870   -3.7390 n4        1 MOL     -0.454733
     28 H8          1.2180    3.1830   -0.4500 hn        1 MOL      0.165133
     29 H9          2.5890    5.7300   -0.2940 h1        1 MOL      0.031667
     30 H10         0.6640    6.2090    1.2960 hc        1 MOL      0.036283
     31 H11         0.3000    4.5450    1.2150 hc        1 MOL      0.036283
     32 H12        -1.0500    6.1830   -0.2290 hc        1 MOL     -0.052268
     33 H13        -0.5650    4.6360   -0.8610 hc        1 MOL     -0.052268
     34 H14         1.2240    5.7710   -2.2290 hc        1 MOL     -0.019572
     35 H15         0.8190    7.2720   -1.2850 hc        1 MOL     -0.019572
     36 H16        -1.5000    6.9580   -1.9090 hx        1 MOL      0.053072
     37 H17        -1.0180    5.5480   -2.9350 hx        1 MOL      0.053072
     38 H18         0.2550    7.1320   -4.3630 hn        1 MOL      0.341979
     39 H19        -1.2930    7.4180   -4.3030 hn        1 MOL      0.341979
     40 H20        -0.1890    8.4280   -3.4770 hn        1 MOL      0.341979
     41 N4          3.5330    3.6900    1.8660 n         1 MOL     -0.200305
     42 C13         4.5620    3.4820    2.9140 c3        1 MOL     -0.001763
     43 C14         5.7730    2.6930    2.4050 c         1 MOL      0.487930
     44 O6          6.6960    2.5970    3.2210 o         1 MOL     -0.575999
     45 C15         3.9310    3.0250    4.1880 c3        1 MOL     -0.094132
     46 C16         2.9490    1.8570    3.9860 c         1 MOL      0.713524
     47 O7          2.0690    1.5860    4.8300 o         1 MOL     -0.691653
     48 O8          3.1820    1.0620    3.0190 o         1 MOL     -0.691653
     49 H21         3.4020    3.0510    1.0920 hn        1 MOL     -0.191698
     50 H22         5.1070    4.4080    3.1130 h1        1 MOL      0.086861
     51 H23         3.3570    3.8540    4.5830 hc        1 MOL      0.042156
     52 H24         4.5920    2.7590    5.0050 hc        1 MOL      0.042156
     53 N5          5.8060    2.1580    1.2260 n         1 MOL     -0.153727
     54 C17         7.0780    1.6660    0.5630 c3        1 MOL     -0.468366
     55 C18         7.6160    0.2840    1.0240 c         1 MOL      0.679715
     56 O9          8.7310   -0.1040    0.7190 o         1 MOL     -0.588451
     57 H25         4.8820    2.0880    0.8110 hn        1 MOL      0.258165
     58 H26         7.8180    2.4320    0.8160 h1        1 MOL      0.189153
     59 H27         6.8660    1.6420   -0.5050 h1        1 MOL      0.189153
     60 N6          6.7800   -0.5120    1.7190 n         1 MOL     -0.370035
     61 C19         7.0380   -1.9120    2.0580 c3        1 MOL      0.036252
     62 C20         6.8660   -2.9410    0.8380 c         1 MOL      0.373265
     63 O10         7.1230   -4.1740    1.0000 o         1 MOL     -0.526882
     64 C21         6.0080   -2.3110    3.2110 c3        1 MOL     -0.289791
     65 C22         4.5710   -2.0880    2.6960 c         1 MOL      0.769258
     66 O11         4.2410   -2.1220    1.4930 o         1 MOL     -0.684663
     67 O12         3.6080   -1.8630    3.4520 o         1 MOL     -0.684663
     68 H28         5.8160   -0.2610    1.5660 hn        1 MOL      0.217286
     69 H29         8.0720   -2.0890    2.3580 h1        1 MOL      0.119690
     70 H30         6.1680   -1.5190    3.9490 hc        1 MOL      0.096956
     71 H31         6.2280   -3.2780    3.6740 hc        1 MOL      0.096956
     72 N7          6.6860   -2.4040   -0.3920 n         1 MOL     -0.190790
     73 C23         6.6660   -3.1840   -1.6330 c3        1 MOL     -0.122390
     74 C24         5.3920   -3.9490   -1.8230 c         1 MOL      0.513994
     75 O13         5.4370   -5.0220   -2.4800 o         1 MOL     -0.582098
     76 H32         6.3660   -1.4530   -0.3830 hn        1 MOL      0.234456
     77 H33         7.5490   -3.8370   -1.6550 h1        1 MOL      0.085927
     78 H34         6.7400   -2.5500   -2.5140 h1        1 MOL      0.085927
     79 N8          4.3240   -3.5500   -1.2080 n         1 MOL     -0.216976
     80 C25         3.0110   -4.1860   -1.2840 c3        1 MOL     -0.123429
     81 C26         1.7720   -3.3130   -1.3220 c         1 MOL      0.585577
     82 O14         1.8160   -2.2410   -0.6840 o         1 MOL     -0.602405
     83 C27         2.7770   -5.2290   -0.1350 c3        1 MOL      0.514865
     84 C28         3.2560   -6.6700   -0.4560 c3        1 MOL     -0.598506
     85 O15         3.5300   -4.8220    0.9960 oh        1 MOL     -0.617776
     86 H35         4.4430   -2.7270   -0.6400 hn        1 MOL      0.247946
     87 H36         2.9040   -4.8400   -2.1440 h1        1 MOL      0.064277
     88 H37         1.7300   -5.2400    0.1730 h1        1 MOL     -0.016030
     89 H38         4.0080   -4.0170    0.8050 ho        1 MOL      0.383202
     90 H39         4.3410   -6.7660   -0.4340 hc        1 MOL      0.150487
     91 H40         2.8010   -7.2500    0.3520 hc        1 MOL      0.150487
     92 H41         2.8240   -6.9990   -1.3970 hc        1 MOL      0.150487
     93 N9          0.6760   -3.6900   -2.0260 n         1 MOL     -0.630600
     94 C29        -0.4760   -2.7890   -2.2750 c3        1 MOL      0.031436
     95 C30        -1.7710   -3.3730   -1.7170 c         1 MOL      0.442822
     96 O16        -2.2610   -4.4960   -2.0390 o         1 MOL     -0.539882
     97 C31        -0.6910   -2.3510   -3.8190 c3        1 MOL      0.052864
     98 C32         0.6010   -1.6370   -4.3170 c3        1 MOL      0.258570
     99 C33        -1.8130   -1.3100   -3.9380 c3        1 MOL     -0.363374
    100 C34         0.6290   -1.6080   -5.8520 c3        1 MOL     -0.367870
    101 H42         0.6860   -4.5450   -2.5840 hn        1 MOL      0.342162
    102 H43        -0.2440   -1.8550   -1.7620 h1        1 MOL      0.094888
    103 H44        -0.8610   -3.2450   -4.4220 hc        1 MOL      0.035028
    104 H45         1.4780   -2.2060   -4.0320 hc        1 MOL     -0.012956
    105 H46         0.6910   -0.6070   -3.9550 hc        1 MOL     -0.012956
    106 H47        -2.7790   -1.6700   -3.5840 hc        1 MOL      0.088030
    107 H48        -1.5820   -0.4130   -3.3620 hc        1 MOL      0.088030
    108 H49        -1.8730   -0.8660   -4.9380 hc        1 MOL      0.088030
    109 H50        -0.2330   -1.0120   -6.1410 hc        1 MOL      0.080730
    110 H51         1.5910   -1.1650   -6.1240 hc        1 MOL      0.080730
    111 H52         0.5140   -2.6420   -6.1650 hc        1 MOL      0.080730
    112 N10        -2.3580   -2.6610   -0.7230 n         1 MOL     -0.064364
    113 C35        -3.5920   -2.9710   -0.0140 c3        1 MOL     -0.083276
    114 C36        -4.8410   -2.4190   -0.7130 c         1 MOL      0.273707
    115 O17        -4.7460   -1.7080   -1.7390 o         1 MOL     -0.338534
    116 C37        -3.5020   -2.5340    1.4190 c3        1 MOL      0.288864
    117 C38        -2.3220   -3.2220    2.1920 c3        1 MOL     -0.445797
    118 O18        -3.2760   -1.1310    1.6130 oh        1 MOL     -0.595823
    119 H53        -1.8590   -1.8330   -0.4430 hn        1 MOL      0.151193
    120 H54        -3.7420   -4.0560   -0.0860 h1        1 MOL      0.079804
    121 H55        -4.4640   -2.8340    1.8530 h1        1 MOL      0.030142
    122 H56        -2.3800   -0.8420    1.4320 ho        1 MOL      0.387793
    123 H57        -1.9080   -4.0760    1.6550 hc        1 MOL      0.131736
    124 H58        -1.5750   -2.4760    2.4530 hc        1 MOL      0.131736
    125 H59        -2.7670   -3.5400    3.1430 hc        1 MOL      0.131736
    126 N11        -6.0280   -2.7400   -0.2350 n         1 MOL     -0.187104
    127 C39        -7.3090   -2.3780   -0.8340 c3        1 MOL     -0.007214
    128 C40        -7.6400   -0.9250   -0.4790 c         1 MOL      0.232010
    129 O19        -8.2090   -0.2220   -1.3220 o         1 MOL     -0.472992
    130 C41        -8.4760   -3.1430   -0.3200 c3        1 MOL      0.266620
    131 C42        -8.3610   -4.6400   -0.8170 c3        1 MOL     -0.371623
    132 O20        -8.5230   -3.0420    1.0860 oh        1 MOL     -0.645952
    133 H60        -6.1050   -3.2390    0.6390 hn        1 MOL      0.217200
    134 H61        -7.3050   -2.4170   -1.9270 h1        1 MOL      0.125193
    135 H62        -9.3660   -2.6890   -0.7480 h1        1 MOL      0.046301
    136 H63        -9.2920   -3.4670    1.4570 ho        1 MOL      0.424220
    137 H64        -9.1240   -5.2910   -0.3800 hc        1 MOL      0.105065
    138 H65        -8.4070   -4.6370   -1.9020 hc        1 MOL      0.105065
    139 H66        -7.3710   -4.9950   -0.5100 hc        1 MOL      0.105065
    140 N12        -7.1590   -0.3420    0.6500 n         1 MOL     -0.102328
    141 C43        -7.1980    1.1290    0.9160 c3        1 MOL     -0.184566
    142 C44        -6.0930    1.8800    0.2500 c         1 MOL      0.554809
    143 O21        -6.1260    3.0340   -0.0240 o         1 MOL     -0.524404
    144 C45        -7.3570    1.3110    2.4850 c3        1 MOL      0.177325
    145 C46        -8.7370    0.7910    2.8940 c3        1 MOL     -0.198628
    146 C47        -9.1680    1.2890    4.3020 c3        1 MOL      0.094424
    147 C48       -10.5550    0.6850    4.7010 c3        1 MOL     -0.037019
    148 N13       -10.7070    0.5100    6.1380 n4        1 MOL     -0.234871
    149 H67        -6.7330   -0.9920    1.2900 hn        1 MOL      0.223721
    150 H68        -8.1250    1.5140    0.4770 h1        1 MOL      0.138433
    151 H69        -7.2090    2.3340    2.8210 hc        1 MOL     -0.012481
    152 H70        -6.6350    0.6950    3.0220 hc        1 MOL     -0.012481
    153 H71        -8.7850   -0.3050    2.8620 hc        1 MOL      0.038278
    154 H72        -9.4450    1.2550    2.2110 hc        1 MOL      0.038278
    155 H73        -9.3290    2.3670    4.3580 hc        1 MOL      0.025509
    156 H74        -8.3800    1.0600    5.0240 hc        1 MOL      0.025509
    157 H75       -10.7460   -0.2960    4.2450 hx        1 MOL      0.097671
    158 H76       -11.3120    1.3400    4.2620 hx        1 MOL      0.097671
    159 H77       -10.1160   -0.2140    6.5100 hn        1 MOL      0.259939
    160 H78       -10.5380    1.3630    6.6570 hn        1 MOL      0.259939
    161 H79       -11.6100    0.1430    6.3820 hn        1 MOL      0.259939
    162 N14        -4.9410    1.2580    0.0430 n         1 MOL     -0.200119
    163 C49        -3.9150    1.8250   -0.8910 c3        1 MOL     -0.087084
    164 C50        -4.4170    1.9210   -2.3470 c         1 MOL      0.430700
    165 O22        -4.5200    2.9840   -2.8820 o         1 MOL     -0.554152
    166 C51        -2.5410    1.1510   -0.8750 c3        1 MOL     -0.059399
    167 C52        -1.8460    1.6520    0.3870 c3        1 MOL      0.091290
    168 C53        -0.5030    0.9050    0.5120 c         1 MOL      0.649811
    169 O23        -0.5590   -0.3160    0.7390 o         1 MOL     -0.739468
    170 O24         0.6260    1.4760    0.4730 o         1 MOL     -0.739468
    171 H80        -4.7410    0.3480    0.4200 hn        1 MOL      0.065751
    172 H81        -3.8620    2.8450   -0.5140 h1        1 MOL      0.070429
    173 H82        -1.9160    1.3400   -1.7410 hc        1 MOL      0.057942
    174 H83        -2.6760    0.0730   -0.8160 hc        1 MOL      0.057942
    175 H84        -2.4060    1.5600    1.3180 hc        1 MOL     -0.028405
    176 H85        -1.6040    2.7020    0.2030 hc        1 MOL     -0.028405
    177 N15        -4.7640    0.8150   -2.9690 n         1 MOL     -0.024073
    178 C54        -5.2330    0.7550   -4.3510 c3        1 MOL     -0.168350
    179 H86        -4.8440   -0.1450   -4.8270 h1        1 MOL      0.072820
    180 H87        -6.3230    0.7300   -4.3640 h1        1 MOL      0.072820
    181 H88        -4.8830    1.6330   -4.8940 h1        1 MOL      0.072820
    182 H89        -4.6300   -0.0390   -2.4540 hn        1 MOL      0.044722
    183 Ca1         1.9460   -0.6200    1.5890 Ca        1 MOL      1.777161
    184 O25         0.2130   -0.2020    3.7830 oh        1 MOL     -0.861504
    185 H90        -0.6630    0.0190    4.1020 ho        1 MOL      0.399973
    186 H91         0.7860    0.4490    4.1650 ho        1 MOL      0.399973
    187 O26         1.2040   -3.0560    2.4030 oh        1 MOL     -0.861504
    188 H92         0.5930   -3.3450    3.0760 ho        1 MOL      0.399973
    189 H93         2.0310   -3.4600    2.6380 ho        1 MOL      0.399973
@<TRIPOS>BOND
     1    1    2 1   
     2    1    4 1   
     3    1    5 1   
     4    1    6 1   
     5    2    3 2   
     6    2    7 1   
     7    7    8 1   
     8    7   15 1   
     9    8    9 1   
    10    8   11 1   
    11    8   16 1   
    12    9   10 2   
    13    9   19 1   
    14   11   12 1   
    15   11   17 1   
    16   11   18 1   
    17   12   13 1   
    18   12   14 1   
    19   19   20 1   
    20   19   28 1   
    21   20   21 1   
    22   20   23 1   
    23   20   29 1   
    24   21   22 2   
    25   21   41 1   
    26   23   24 1   
    27   23   30 1   
    28   23   31 1   
    29   24   25 1   
    30   24   32 1   
    31   24   33 1   
    32   25   26 1   
    33   25   34 1   
    34   25   35 1   
    35   26   27 1   
    36   26   36 1   
    37   26   37 1   
    38   27   38 1   
    39   27   39 1   
    40   27   40 1   
    41   41   42 1   
    42   41   49 1   
    43   42   43 1   
    44   42   45 1   
    45   42   50 1   
    46   43   44 2   
    47   43   53 1   
    48   45   46 1   
    49   45   51 1   
    50   45   52 1   
    51   46   47 1   
    52   46   48 1   
    53   53   54 1   
    54   53   57 1   
    55   54   55 1   
    56   54   58 1   
    57   54   59 1   
    58   55   56 2   
    59   55   60 1   
    60   60   61 1   
    61   60   68 1   
    62   61   62 1   
    63   61   64 1   
    64   61   69 1   
    65   62   63 2   
    66   62   72 1   
    67   64   65 1   
    68   64   70 1   
    69   64   71 1   
    70   65   66 1   
    71   65   67 1   
    72   72   73 1   
    73   72   76 1   
    74   73   74 1   
    75   73   77 1   
    76   73   78 1   
    77   74   75 2   
    78   74   79 1   
    79   79   80 1   
    80   79   86 1   
    81   80   81 1   
    82   80   83 1   
    83   80   87 1   
    84   81   82 2   
    85   81   93 1   
    86   83   84 1   
    87   83   85 1   
    88   83   88 1   
    89   84   90 1   
    90   84   91 1   
    91   84   92 1   
    92   85   89 1   
    93   93   94 1   
    94   93  101 1   
    95   94   95 1   
    96   94   97 1   
    97   94  102 1   
    98   95   96 2   
    99   95  112 1   
   100   97   98 1   
   101   97   99 1   
   102   97  103 1   
   103   98  100 1   
   104   98  104 1   
   105   98  105 1   
   106   99  106 1   
   107   99  107 1   
   108   99  108 1   
   109  100  109 1   
   110  100  110 1   
   111  100  111 1   
   112  112  113 1   
   113  112  119 1   
   114  113  114 1   
   115  113  116 1   
   116  113  120 1   
   117  114  115 2   
   118  114  126 1   
   119  116  117 1   
   120  116  118 1   
   121  116  121 1   
   122  117  123 1   
   123  117  124 1   
   124  117  125 1   
   125  118  122 1   
   126  126  127 1   
   127  126  133 1   
   128  127  128 1   
   129  127  130 1   
   130  127  134 1   
   131  128  129 2   
   132  128  140 1   
   133  130  131 1   
   134  130  132 1   
   135  130  135 1   
   136  131  137 1   
   137  131  138 1   
   138  131  139 1   
   139  132  136 1   
   140  140  141 1   
   141  140  149 1   
   142  141  142 1   
   143  141  144 1   
   144  141  150 1   
   145  142  143 2   
   146  142  162 1   
   147  144  145 1   
   148  144  151 1   
   149  144  152 1   
   150  145  146 1   
   151  145  153 1   
   152  145  154 1   
   153  146  147 1   
   154  146  155 1   
   155  146  156 1   
   156  147  148 1   
   157  147  157 1   
   158  147  158 1   
   159  148  159 1   
   160  148  160 1   
   161  148  161 1   
   162  162  163 1   
   163  162  171 1   
   164  163  164 1   
   165  163  166 1   
   166  163  172 1   
   167  164  165 2   
   168  164  177 1   
   169  166  167 1   
   170  166  173 1   
   171  166  174 1   
   172  167  168 1   
   173  167  175 1   
   174  167  176 1   
   175  168  169 1   
   176  168  170 1   
   177  177  178 1   
   178  177  182 1   
   179  178  179 1   
   180  178  180 1   
   181  178  181 1   
   182  184  185 1   
   183  184  186 1   
   184  187  188 1   
   185  187  189 1   
@<TRIPOS>SUBSTRUCTURE
     1 MOL         1 TEMP              0 ****  ****    0 ROOT
