@<TRIPOS>MOLECULE
MOL
  189   185     1     0     0
SMALL
resp


@<TRIPOS>ATOM
      1 C1          0.8780   -2.3260    6.4640 c3        1 MOL     -0.520419
      2 C2          0.8900   -2.3500    4.8930 c         1 MOL      0.659089
      3 O1          0.3940   -1.4090    4.2380 o         1 MOL     -0.558596
      4 H1          0.7670   -3.3420    6.8410 hc        1 MOL      0.133478
      5 H2          1.8140   -1.9040    6.8290 hc        1 MOL      0.133478
      6 H3          0.0440   -1.7170    6.8120 hc        1 MOL      0.133478
      7 N1          1.5990   -3.3500    4.3650 n         1 MOL     -0.528339
      8 C3          2.1420   -3.3400    3.0250 c3        1 MOL      0.143661
      9 C4          1.9230   -4.6410    2.1690 c         1 MOL      0.536757
     10 O2          2.1160   -5.7050    2.6970 o         1 MOL     -0.582835
     11 C5          3.5910   -2.9970    3.0320 c3        1 MOL     -0.029726
     12 C6          4.1820   -3.0000    1.5790 c         1 MOL      0.557622
     13 O3          3.6410   -2.3400    0.6660 o         1 MOL     -0.626145
     14 O4          5.0860   -3.8710    1.3510 o         1 MOL     -0.626145
     15 H4          1.9170   -4.0720    4.9970 hn        1 MOL      0.311084
     16 H5          1.6630   -2.5280    2.4640 h1        1 MOL     -0.015006
     17 H6          4.0860   -3.8060    3.5670 hc        1 MOL     -0.012885
     18 H7          3.9490   -2.2310    3.7110 hc        1 MOL     -0.012885
     19 N2          1.4820   -4.4940    0.9080 n         1 MOL     -0.330231
     20 C7          1.4270   -5.6420   -0.0950 c3        1 MOL      0.080116
     21 C8          2.2320   -5.3680   -1.3850 c         1 MOL      0.275533
     22 O5          2.3080   -6.2370   -2.2740 o         1 MOL     -0.554134
     23 C9         -0.1110   -6.0790   -0.3090 c3        1 MOL      0.077207
     24 C10        -0.3820   -7.4190   -0.9830 c3        1 MOL      0.197171
     25 C11        -0.7280   -5.0010   -1.1670 c3        1 MOL     -0.361192
     26 C12        -0.2060   -8.5540   -0.0060 c3        1 MOL     -0.247636
     27 H8          1.2930   -3.5570    0.5850 hn        1 MOL      0.118024
     28 H9          1.8380   -6.4800    0.4550 h1        1 MOL      0.098452
     29 H10        -0.5990   -6.0600    0.6690 hc        1 MOL      0.017072
     30 H11         0.2150   -7.6300   -1.8730 hc        1 MOL     -0.032618
     31 H12        -1.4220   -7.3050   -1.2780 hc        1 MOL     -0.032618
     32 H13        -0.3290   -5.0210   -2.1770 hc        1 MOL      0.103149
     33 H14        -1.7650   -5.2590   -1.3730 hc        1 MOL      0.103149
     34 H15        -0.7200   -4.0430   -0.6400 hc        1 MOL      0.103149
     35 H16        -0.2990   -9.5210   -0.5040 hc        1 MOL      0.031512
     36 H17         0.7920   -8.4560    0.4150 hc        1 MOL      0.031512
     37 H18        -0.9290   -8.5870    0.8160 hc        1 MOL      0.031512
     38 N3          2.8420   -4.2540   -1.6670 n         1 MOL     -0.039363
     39 C13         3.5720   -3.9660   -2.9240 c3        1 MOL     -0.083866
     40 C14         4.9580   -3.3490   -2.7520 c         1 MOL      0.528947
     41 O6          5.6730   -3.2050   -3.7620 o         1 MOL     -0.590347
     42 C15         2.5980   -3.1050   -3.7850 c3        1 MOL     -0.045607
     43 C16         1.8920   -1.9550   -3.0250 c         1 MOL      0.680031
     44 O7          2.3140   -1.6020   -1.9220 o         1 MOL     -0.708267
     45 O8          0.8640   -1.4580   -3.5120 o         1 MOL     -0.708267
     46 H19         2.8000   -3.4960   -0.9920 hn        1 MOL      0.174927
     47 H20         3.7660   -4.9060   -3.4440 h1        1 MOL      0.083992
     48 H21         1.8310   -3.7890   -4.1230 hc        1 MOL      0.021133
     49 H22         3.0360   -2.7540   -4.7150 hc        1 MOL      0.021133
     50 N4          5.3650   -3.0080   -1.5210 n         1 MOL     -0.326924
     51 C17         6.7400   -2.5440   -1.2570 c3        1 MOL     -0.027382
     52 C18         7.2060   -1.2080   -1.8040 c         1 MOL      0.352201
     53 O9          8.4030   -0.9080   -1.8130 o         1 MOL     -0.576885
     54 H23         4.8060   -3.3440   -0.7520 hn        1 MOL      0.173983
     55 H24         7.4010   -3.2880   -1.7060 h1        1 MOL      0.078860
     56 H25         7.0140   -2.6920   -0.2200 h1        1 MOL      0.078860
     57 N5          6.2430   -0.3860   -2.2660 n         1 MOL     -0.009262
     58 C19         6.4880    0.9600   -2.8170 c3        1 MOL     -0.107553
     59 C20         6.8720    2.0720   -1.8030 c         1 MOL      0.432692
     60 O10         7.4880    3.0620   -2.1870 o         1 MOL     -0.553596
     61 C21         5.2280    1.3670   -3.6010 c3        1 MOL     -0.101081
     62 C22         3.9090    1.4470   -2.6480 c         1 MOL      0.710518
     63 O11         3.9950    1.2270   -1.4350 o         1 MOL     -0.687690
     64 O12         2.8440    1.8220   -3.1890 o         1 MOL     -0.687690
     65 H26         5.3060   -0.7670   -2.3170 hn        1 MOL      0.084081
     66 H27         7.2900    0.8120   -3.5410 h1        1 MOL      0.100356
     67 H28         5.0560    0.7380   -4.4830 hc        1 MOL      0.036392
     68 H29         5.4070    2.3270   -4.0730 hc        1 MOL      0.036392
     69 N6          6.6140    1.8980   -0.5270 n         1 MOL     -0.108034
     70 C23         7.0710    2.7290    0.6320 c3        1 MOL     -0.227382
     71 C24         6.0220    3.8090    1.0270 c         1 MOL      0.518988
     72 O13         6.2880    4.6730    1.9020 o         1 MOL     -0.598541
     73 H30         6.0870    1.1020   -0.2090 hn        1 MOL      0.150610
     74 H31         8.0460    3.1780    0.3960 h1        1 MOL      0.106539
     75 H32         7.1330    2.0830    1.5120 h1        1 MOL      0.106539
     76 N7          4.8060    3.7440    0.4830 n         1 MOL     -0.293135
     77 C25         3.6510    4.5370    0.8980 c3        1 MOL      0.081197
     78 C26         2.4610    3.5850    1.1320 c         1 MOL      0.535586
     79 O14         2.3300    2.4480    0.7340 o         1 MOL     -0.475474
     80 C27         3.1750    5.5480   -0.1570 c3        1 MOL     -0.148160
     81 C28         4.2220    6.6240   -0.4740 c3        1 MOL     -0.126025
     82 C29         3.6180    7.8070   -1.2440 c         1 MOL      0.629816
     83 N8          4.4150    8.6240   -1.9270 n         1 MOL     -0.773149
     84 O15         2.4070    7.9850   -1.3320 o         1 MOL     -0.566233
     85 H33         4.6370    2.9660   -0.1410 hn        1 MOL      0.221088
     86 H34         3.8310    5.0940    1.8260 h1        1 MOL      0.053534
     87 H35         2.3580    6.1000    0.3080 hc        1 MOL      0.090729
     88 H36         2.8940    5.0240   -1.0710 hc        1 MOL      0.090729
     89 H37         4.9380    6.1760   -1.1560 hc        1 MOL      0.060850
     90 H38         4.6890    7.0740    0.4000 hc        1 MOL      0.060850
     91 H39         5.4200    8.5640   -1.9110 hn        1 MOL      0.343011
     92 H40         3.8840    9.3630   -2.3680 hn        1 MOL      0.343011
     93 N9          1.5230    3.9780    2.0280 n         1 MOL     -0.743571
     94 C30         0.2640    3.2180    2.2950 c3        1 MOL      0.295484
     95 C31        -0.8990    3.5100    1.3640 c         1 MOL      0.476424
     96 O16        -1.2930    4.6830    1.3320 o         1 MOL     -0.579745
     97 C32        -0.0640    3.2870    3.7690 c3        1 MOL      0.344455
     98 C33        -0.6890    4.5510    4.2580 c3        1 MOL     -0.319544
     99 C34        -0.9630    2.1470    4.2660 c3        1 MOL     -0.319544
    100 H41         1.6190    4.9300    2.3330 hn        1 MOL      0.342044
    101 H42         0.5080    2.1620    2.2230 h1        1 MOL      0.044353
    102 H43         0.9030    3.1960    4.2610 hc        1 MOL     -0.081779
    103 H44        -0.1600    5.3320    3.7230 hc        1 MOL      0.055470
    104 H45        -1.7080    4.6270    3.8710 hc        1 MOL      0.055470
    105 H46        -0.5960    4.6200    5.3390 hc        1 MOL      0.055470
    106 H47        -0.4660    1.2120    4.0160 hc        1 MOL      0.055470
    107 H48        -0.9400    2.2880    5.3470 hc        1 MOL      0.055470
    108 H49        -1.9750    2.2240    3.8860 hc        1 MOL      0.055470
    109 N10        -1.4130    2.4820    0.6910 n         1 MOL     -0.104175
    110 C35        -2.6330    2.5400   -0.1610 c3        1 MOL      0.079959
    111 C36        -3.9480    2.4130    0.6070 c         1 MOL      0.178967
    112 O17        -4.0560    2.1410    1.7830 o         1 MOL     -0.389346
    113 C37        -2.5310    1.3420   -1.1450 c3        1 MOL     -0.198975
    114 C38        -3.6680    1.1560   -2.1790 c         1 MOL      0.769339
    115 N11        -3.9100    2.0560   -3.0680 n         1 MOL     -0.789018
    116 O18        -4.3980    0.1820   -2.1900 o         1 MOL     -0.519649
    117 H50        -1.0320    1.5600    0.8360 hn        1 MOL     -0.170873
    118 H51        -2.6360    3.4720   -0.7310 h1        1 MOL      0.045944
    119 H52        -2.3840    0.4350   -0.5490 hc        1 MOL      0.089810
    120 H53        -1.6040    1.4990   -1.7120 hc        1 MOL      0.089810
    121 H54        -3.4140    2.9300   -3.0350 hn        1 MOL      0.369807
    122 H55        -4.7440    1.8690   -3.6020 hn        1 MOL      0.369807
    123 N12        -5.0060    2.6570   -0.0480 n         1 MOL     -0.044832
    124 C39        -6.4100    2.5870    0.4310 c3        1 MOL      0.036242
    125 C40        -6.7670    1.1220    0.8470 c         1 MOL      0.413293
    126 O19        -7.5260    0.9830    1.7900 o         1 MOL     -0.552432
    127 C41        -7.3930    3.2100   -0.5660 c3        1 MOL      0.075957
    128 C42        -7.4160    2.6460   -1.9730 ca        1 MOL     -0.097449
    129 C43        -8.2480    1.5940   -2.3200 ca        1 MOL     -0.002616
    130 C44        -6.7370    3.4030   -2.9300 ca        1 MOL     -0.002616
    131 C45        -8.3780    1.2100   -3.6640 ca        1 MOL     -0.469826
    132 C46        -6.8560    2.9490   -4.2920 ca        1 MOL     -0.469826
    133 C47        -7.5990    1.8400   -4.5920 ca        1 MOL      0.539224
    134 O20        -7.5450    1.3920   -5.8620 oh        1 MOL     -0.550613
    135 H56        -4.9370    2.8910   -1.0270 hn        1 MOL      0.046073
    136 H57        -6.6330    3.2960    1.2370 h1        1 MOL      0.063533
    137 H58        -7.2540    4.2820   -0.5910 hc        1 MOL     -0.007889
    138 H59        -8.4020    3.1010   -0.1770 hc        1 MOL     -0.007889
    139 H60        -8.6840    1.1100   -1.4630 ha        1 MOL      0.100547
    140 H61        -6.1290    4.2760   -2.7430 ha        1 MOL      0.100547
    141 H62        -9.0480    0.3870   -3.8300 ha        1 MOL      0.186851
    142 H63        -6.2620    3.4020   -5.0680 ha        1 MOL      0.186851
    143 H64        -8.3720    0.9390   -6.0350 ho        1 MOL      0.400128
    144 N13        -6.2670    0.0880    0.1040 n         1 MOL     -0.058229
    145 C48        -6.5860   -1.2950    0.4990 c3        1 MOL     -0.234466
    146 C49        -5.6740   -1.8630    1.5870 c         1 MOL      0.429764
    147 O21        -5.9140   -2.9170    2.1740 o         1 MOL     -0.547436
    148 C50        -6.4900   -2.2370   -0.7190 c3        1 MOL      0.098410
    149 C51        -7.3390   -1.8650   -1.9500 c3        1 MOL     -0.030669
    150 C52        -7.0550   -2.9150   -3.0700 c         1 MOL      0.626005
    151 O22        -6.0190   -2.7740   -3.7090 o         1 MOL     -0.713342
    152 O23        -7.9240   -3.8370   -3.1020 o         1 MOL     -0.713342
    153 H65        -5.7050    0.3680   -0.6910 hn        1 MOL      0.153066
    154 H66        -7.5710   -1.3890    0.9440 h1        1 MOL      0.132378
    155 H67        -6.7700   -3.2250   -0.3450 hc        1 MOL      0.019018
    156 H68        -5.4520   -2.2190   -1.0500 hc        1 MOL      0.019018
    157 H69        -7.0580   -0.8650   -2.2750 hc        1 MOL     -0.033947
    158 H70        -8.3840   -1.9610   -1.6490 hc        1 MOL     -0.033947
    159 N14        -4.6890   -1.0440    1.8760 n         1 MOL     -0.105897
    160 C53        -3.6870   -1.2430    3.0050 c3        1 MOL     -0.126705
    161 C54        -3.9880   -0.4410    4.2750 c         1 MOL      0.474692
    162 O24        -3.5790   -0.8540    5.3190 o         1 MOL     -0.557116
    163 C55        -2.3780   -0.8240    2.4330 c3        1 MOL      0.069808
    164 C56        -1.7640   -1.8410    1.4480 c3        1 MOL     -0.082587
    165 C57        -0.4200   -1.2410    0.8660 c         1 MOL      0.542891
    166 O25        -0.1080   -0.0330    1.0800 o         1 MOL     -0.513904
    167 O26         0.3730   -1.9390    0.2230 o         1 MOL     -0.513904
    168 H71        -4.6540   -0.1940    1.3430 hn        1 MOL     -0.096984
    169 H72        -3.5620   -2.3030    3.2180 h1        1 MOL      0.088367
    170 H73        -1.7030   -0.6460    3.2690 hc        1 MOL      0.110535
    171 H74        -2.5250    0.1570    1.9740 hc        1 MOL      0.110535
    172 H75        -2.3680   -2.0030    0.5550 hc        1 MOL      0.037408
    173 H76        -1.6000   -2.7990    1.9430 hc        1 MOL      0.037408
    174 N15        -4.5460    0.7770    4.1540 n         1 MOL     -0.157939
    175 C58        -4.7400    1.7710    5.2560 c3        1 MOL     -0.069336
    176 H77        -5.0570    2.7250    4.8330 h1        1 MOL      0.047166
    177 H78        -5.5020    1.4080    5.9450 h1        1 MOL      0.047166
    178 H79        -3.8000    1.9070    5.7930 h1        1 MOL      0.047166
    179 H80        -4.7990    1.0730    3.2220 hn        1 MOL      0.141487
    180 Ca1         2.3670   -0.1530    0.1660 Ca        1 MOL      1.686651
    181 O27         4.7150    0.1840    1.6810 oh        1 MOL     -0.864303
    182 H81         5.5060   -0.3480    1.6560 ho        1 MOL      0.414200
    183 H82         4.7070    0.5620    2.5620 ho        1 MOL      0.414200
    184 O28         2.1240    0.2650    2.8430 oh        1 MOL     -0.864303
    185 H83         2.7330    0.6640    3.4550 ho        1 MOL      0.414200
    186 H84         1.4500   -0.1250    3.3990 ho        1 MOL      0.414200
    187 O29         0.8630    0.8250   -1.9240 oh        1 MOL     -0.864303
    188 H85         0.4850    0.1470   -2.4900 ho        1 MOL      0.414200
    189 H86         1.6090    1.1560   -2.4330 ho        1 MOL      0.414200
@<TRIPOS>BOND
     1    1    2 1   
     2    1    4 1   
     3    1    5 1   
     4    1    6 1   
     5    2    3 2   
     6    2    7 1   
     7    7    8 1   
     8    7   15 1   
     9    8    9 1   
    10    8   11 1   
    11    8   16 1   
    12    9   10 2   
    13    9   19 1   
    14   11   12 1   
    15   11   17 1   
    16   11   18 1   
    17   12   13 1   
    18   12   14 1   
    19   19   20 1   
    20   19   27 1   
    21   20   21 1   
    22   20   23 1   
    23   20   28 1   
    24   21   22 2   
    25   21   38 1   
    26   23   24 1   
    27   23   25 1   
    28   23   29 1   
    29   24   26 1   
    30   24   30 1   
    31   24   31 1   
    32   25   32 1   
    33   25   33 1   
    34   25   34 1   
    35   26   35 1   
    36   26   36 1   
    37   26   37 1   
    38   38   39 1   
    39   38   46 1   
    40   39   40 1   
    41   39   42 1   
    42   39   47 1   
    43   40   41 2   
    44   40   50 1   
    45   42   43 1   
    46   42   48 1   
    47   42   49 1   
    48   43   44 1   
    49   43   45 1   
    50   50   51 1   
    51   50   54 1   
    52   51   52 1   
    53   51   55 1   
    54   51   56 1   
    55   52   53 2   
    56   52   57 1   
    57   57   58 1   
    58   57   65 1   
    59   58   59 1   
    60   58   61 1   
    61   58   66 1   
    62   59   60 2   
    63   59   69 1   
    64   61   62 1   
    65   61   67 1   
    66   61   68 1   
    67   62   63 1   
    68   62   64 1   
    69   69   70 1   
    70   69   73 1   
    71   70   71 1   
    72   70   74 1   
    73   70   75 1   
    74   71   72 2   
    75   71   76 1   
    76   76   77 1   
    77   76   85 1   
    78   77   78 1   
    79   77   80 1   
    80   77   86 1   
    81   78   79 2   
    82   78   93 1   
    83   80   81 1   
    84   80   87 1   
    85   80   88 1   
    86   81   82 1   
    87   81   89 1   
    88   81   90 1   
    89   82   83 1   
    90   82   84 2   
    91   83   91 1   
    92   83   92 1   
    93   93   94 1   
    94   93  100 1   
    95   94   95 1   
    96   94   97 1   
    97   94  101 1   
    98   95   96 2   
    99   95  109 1   
   100   97   98 1   
   101   97   99 1   
   102   97  102 1   
   103   98  103 1   
   104   98  104 1   
   105   98  105 1   
   106   99  106 1   
   107   99  107 1   
   108   99  108 1   
   109  109  110 1   
   110  109  117 1   
   111  110  111 1   
   112  110  113 1   
   113  110  118 1   
   114  111  112 2   
   115  111  123 1   
   116  113  114 1   
   117  113  119 1   
   118  113  120 1   
   119  114  115 1   
   120  114  116 2   
   121  115  121 1   
   122  115  122 1   
   123  123  124 1   
   124  123  135 1   
   125  124  125 1   
   126  124  127 1   
   127  124  136 1   
   128  125  126 2   
   129  125  144 1   
   130  127  128 1   
   131  127  137 1   
   132  127  138 1   
   133  128  129 ar  
   134  128  130 ar  
   135  129  131 ar  
   136  129  139 1   
   137  130  132 ar  
   138  130  140 1   
   139  131  133 ar  
   140  131  141 1   
   141  132  133 ar  
   142  132  142 1   
   143  133  134 1   
   144  134  143 1   
   145  144  145 1   
   146  144  153 1   
   147  145  146 1   
   148  145  148 1   
   149  145  154 1   
   150  146  147 2   
   151  146  159 1   
   152  148  149 1   
   153  148  155 1   
   154  148  156 1   
   155  149  150 1   
   156  149  157 1   
   157  149  158 1   
   158  150  151 1   
   159  150  152 1   
   160  159  160 1   
   161  159  168 1   
   162  160  161 1   
   163  160  163 1   
   164  160  169 1   
   165  161  162 2   
   166  161  174 1   
   167  163  164 1   
   168  163  170 1   
   169  163  171 1   
   170  164  165 1   
   171  164  172 1   
   172  164  173 1   
   173  165  166 1   
   174  165  167 1   
   175  174  175 1   
   176  174  179 1   
   177  175  176 1   
   178  175  177 1   
   179  175  178 1   
   180  181  182 1   
   181  181  183 1   
   182  184  185 1   
   183  184  186 1   
   184  187  188 1   
   185  187  189 1   
@<TRIPOS>SUBSTRUCTURE
     1 MOL         1 TEMP              0 ****  ****    0 ROOT
