@<TRIPOS>MOLECULE
MOL
  179   176     1     0     0
SMALL
resp


@<TRIPOS>ATOM
      1 C1          0.3320    3.0160    6.5110 c3        1 MOL     -0.231220
      2 C2          0.1280    2.4720    5.0660 c         1 MOL      0.750308
      3 O1          1.1090    2.2940    4.3860 o         1 MOL     -0.559579
      4 H1          0.0600    4.0710    6.5440 hc        1 MOL      0.057677
      5 H2         -0.2980    2.4560    7.2030 hc        1 MOL      0.057677
      6 H3          1.3780    2.9020    6.7980 hc        1 MOL      0.057677
      7 N1         -1.0950    2.1850    4.6030 n         1 MOL     -0.684656
      8 C3         -1.5230    2.0090    3.2560 c3        1 MOL      0.016794
      9 C4         -1.6840    3.3940    2.4880 c         1 MOL      0.781662
     10 O2         -2.2410    4.4150    2.9490 o         1 MOL     -0.619543
     11 C5         -2.7810    1.1600    3.3180 c3        1 MOL     -0.242406
     12 C6         -3.2460    0.7980    1.8550 c         1 MOL      0.679478
     13 O3         -2.6040    1.1830    0.8860 o         1 MOL     -0.658653
     14 O4         -4.2800    0.0700    1.6850 o         1 MOL     -0.658653
     15 H4         -1.8490    2.2810    5.2680 hn        1 MOL      0.335889
     16 H5         -0.6550    1.5330    2.7860 h1        1 MOL      0.025632
     17 H6         -3.6080    1.7710    3.6970 hc        1 MOL      0.087812
     18 H7         -2.6470    0.2710    3.9230 hc        1 MOL      0.087812
     19 N2         -1.0160    3.5160    1.3640 n         1 MOL     -0.431783
     20 C7         -0.8210    4.7760    0.6280 c3        1 MOL     -0.163034
     21 C8         -1.9430    5.2050   -0.3700 c         1 MOL      0.529138
     22 O5         -1.8660    6.2930   -0.9430 o         1 MOL     -0.569122
     23 C9          0.5440    4.6480   -0.0980 c3        1 MOL      0.192216
     24 C10         1.1560    5.9200   -0.6380 c3        1 MOL     -0.162393
     25 C11         1.0620    6.1950   -2.1170 c3        1 MOL     -0.005856
     26 C12         2.2640    7.1050   -2.4040 c3        1 MOL      0.223957
     27 N3          2.4300    7.3480   -3.9320 n4        1 MOL     -0.411750
     28 H8         -0.7190    2.6640    0.9060 hn        1 MOL      0.196333
     29 H9         -0.8110    5.5880    1.3580 h1        1 MOL      0.139410
     30 H10         0.4700    3.8110   -0.7960 hc        1 MOL      0.019142
     31 H11         1.2790    4.3200    0.6380 hc        1 MOL      0.019142
     32 H12         2.2240    5.7930   -0.4970 hc        1 MOL      0.060092
     33 H13         0.7930    6.7220    0.0120 hc        1 MOL      0.060092
     34 H14         0.1250    6.6830   -2.4070 hc        1 MOL      0.010357
     35 H15         1.1810    5.3260   -2.7570 hc        1 MOL      0.010357
     36 H16         3.1580    6.5800   -2.0840 hx        1 MOL      0.025191
     37 H17         2.2590    8.0970   -1.9470 hx        1 MOL      0.025191
     38 H18         2.9160    6.5520   -4.3120 hn        1 MOL      0.328843
     39 H19         1.5970    7.5580   -4.4580 hn        1 MOL      0.328843
     40 H20         3.0430    8.1440   -4.0570 hn        1 MOL      0.328843
     41 N4         -2.8260    4.2950   -0.6710 n         1 MOL     -0.269900
     42 C13        -4.0070    4.4250   -1.5260 c3        1 MOL     -0.069889
     43 C14        -5.3280    3.9070   -0.9040 c         1 MOL      0.445101
     44 O6         -6.4210    4.2630   -1.2810 o         1 MOL     -0.505805
     45 C15        -3.7850    3.7620   -2.8960 c3        1 MOL     -0.042163
     46 C16        -3.0900    2.4240   -2.7930 c         1 MOL      0.789555
     47 O7         -3.2990    1.6550   -1.8580 o         1 MOL     -0.782580
     48 O8         -2.3360    2.0720   -3.7580 o         1 MOL     -0.782580
     49 H21        -2.7200    3.4380   -0.1380 hn        1 MOL      0.192243
     50 H22        -4.2250    5.4710   -1.7410 h1        1 MOL      0.109549
     51 H23        -3.0660    4.3870   -3.4130 hc        1 MOL      0.031238
     52 H24        -4.6470    3.7570   -3.5600 hc        1 MOL      0.031238
     53 N5         -5.2510    3.0070    0.1250 n         1 MOL     -0.156576
     54 C17        -6.3340    2.3940    0.8500 c3        1 MOL     -0.219057
     55 C18        -6.9200    1.2350    0.0590 c         1 MOL      0.553523
     56 O9         -8.1530    1.1050   -0.1260 o         1 MOL     -0.563926
     57 H25        -4.3170    2.6720    0.3050 hn        1 MOL      0.127274
     58 H26        -7.0980    3.1720    0.8740 h1        1 MOL      0.113954
     59 H27        -5.9240    2.1500    1.8310 h1        1 MOL      0.113954
     60 N6         -6.0270    0.3840   -0.4690 n         1 MOL     -0.092782
     61 C19        -6.4410   -0.7810   -1.2420 c3        1 MOL     -0.003966
     62 C20        -6.5080   -2.0960   -0.4370 c         1 MOL      0.329947
     63 O10        -7.1400   -3.0760   -0.9150 o         1 MOL     -0.550873
     64 C21        -5.4710   -0.8880   -2.4500 c3        1 MOL     -0.267079
     65 C22        -4.3530   -1.9220   -2.1250 c         1 MOL      0.523529
     66 N7         -4.4540   -3.1340   -2.5730 n         1 MOL     -0.682904
     67 O11        -3.4090   -1.6450   -1.3430 o         1 MOL     -0.499634
     68 H28        -5.0410    0.4750   -0.2430 hn        1 MOL      0.007163
     69 H29        -7.4420   -0.5690   -1.6380 h1        1 MOL      0.121077
     70 H30        -5.0080    0.0650   -2.7170 hc        1 MOL      0.120875
     71 H31        -6.0180   -1.1910   -3.3440 hc        1 MOL      0.120875
     72 H32        -5.2200   -3.4670   -3.1400 hn        1 MOL      0.348055
     73 H33        -3.7420   -3.8040   -2.3620 hn        1 MOL      0.348055
     74 N8         -5.8660   -2.1940    0.6820 n         1 MOL     -0.023084
     75 C23        -5.8870   -3.2560    1.6460 c3        1 MOL     -0.236342
     76 C24        -4.5750   -4.0140    1.8630 c         1 MOL      0.605791
     77 O12        -4.5350   -4.7920    2.8300 o         1 MOL     -0.588786
     78 H34        -5.3550   -1.3290    0.8480 hn        1 MOL      0.134689
     79 H35        -6.7180   -3.9020    1.3740 h1        1 MOL      0.124060
     80 H36        -6.0600   -2.8920    2.6690 h1        1 MOL      0.124060
     81 N9         -3.5230   -3.8290    1.0900 n         1 MOL     -0.408166
     82 C25        -2.1310   -4.3730    1.3930 c3        1 MOL      0.037685
     83 C26        -1.0110   -3.3020    1.2390 c         1 MOL      0.755336
     84 O13        -1.1320   -2.2910    0.4970 o         1 MOL     -0.651753
     85 C27        -1.8990   -5.7150    0.6410 c3        1 MOL     -0.078097
     86 C28        -1.6900   -5.6040   -0.8530 ca        1 MOL      0.025102
     87 C29        -0.4570   -5.1310   -1.3980 ca        1 MOL     -0.116161
     88 C30        -2.7830   -5.8410   -1.7180 ca        1 MOL     -0.116161
     89 C31        -0.3520   -4.9750   -2.7780 ca        1 MOL     -0.231653
     90 C32        -2.6620   -5.5950   -3.1030 ca        1 MOL     -0.231653
     91 C33        -1.3970   -5.2220   -3.7180 ca        1 MOL      0.282130
     92 O14        -1.1760   -5.0050   -5.0490 oh        1 MOL     -0.485113
     93 H37        -3.6480   -3.1710    0.3360 hn        1 MOL      0.232313
     94 H38        -2.1400   -4.6040    2.4500 h1        1 MOL      0.074788
     95 H39        -2.7760   -6.3620    0.7670 hc        1 MOL      0.049544
     96 H40        -1.0980   -6.1790    1.2100 hc        1 MOL      0.049544
     97 H41         0.3230   -4.9380   -0.6650 ha        1 MOL      0.126450
     98 H42        -3.7400   -6.1170   -1.3060 ha        1 MOL      0.126450
     99 H43         0.5890   -4.7490   -3.2700 ha        1 MOL      0.113342
    100 H44        -3.5370   -5.7440   -3.7270 ha        1 MOL      0.113342
    101 H45        -1.9450   -5.1660   -5.6070 ho        1 MOL      0.389405
    102 N10        -0.0180   -3.5300    2.1240 n         1 MOL     -0.673602
    103 C34         1.2620   -2.7580    2.2110 c3        1 MOL      0.113935
    104 C35         2.3120   -3.5150    1.3200 c         1 MOL      0.438514
    105 O15         2.3390   -4.7260    1.3120 o         1 MOL     -0.526962
    106 C36         1.7630   -2.6530    3.6550 c3        1 MOL      0.102802
    107 C37         0.6440   -2.2830    4.6670 c3        1 MOL     -0.143060
    108 C38         3.0720   -1.7860    3.8570 c3        1 MOL     -0.209264
    109 C39        -0.0840   -0.9610    4.5680 c3        1 MOL      0.020656
    110 H46        -0.1280   -4.2600    2.8250 hn        1 MOL      0.364583
    111 H47         1.1010   -1.7390    1.8770 h1        1 MOL      0.078925
    112 H48         1.9960   -3.6940    3.8970 hc        1 MOL      0.002021
    113 H49         1.1000   -2.2900    5.6510 hc        1 MOL      0.029278
    114 H50        -0.1410   -3.0320    4.5490 hc        1 MOL      0.029278
    115 H51         2.8790   -0.8130    3.4170 hc        1 MOL      0.041997
    116 H52         3.3400   -1.7110    4.9050 hc        1 MOL      0.041997
    117 H53         3.8940   -2.2580    3.3090 hc        1 MOL      0.041997
    118 H54        -0.9270   -0.9970    5.2600 hc        1 MOL      0.023554
    119 H55         0.5720   -0.1050    4.7080 hc        1 MOL      0.023554
    120 H56        -0.4790   -0.8590    3.5550 hc        1 MOL      0.023554
    121 N11         3.1810   -2.7460    0.6620 n         1 MOL     -0.126533
    122 C40         4.2280   -3.1800   -0.2050 c3        1 MOL     -0.106251
    123 C41         5.6180   -2.6460    0.0680 c         1 MOL      0.487788
    124 O16         5.6770   -1.6060    0.7880 o         1 MOL     -0.429924
    125 C42         3.7100   -2.8400   -1.6070 c3        1 MOL     -0.300138
    126 O17         3.5850   -1.4360   -1.7770 oh        1 MOL     -0.500212
    127 H57         3.0650   -1.7470    0.7880 hn        1 MOL      0.314529
    128 H58         4.3850   -4.2640   -0.1480 h1        1 MOL      0.076420
    129 H59         2.7730   -3.3530   -1.8420 h1        1 MOL      0.162563
    130 H60         4.4600   -3.1220   -2.3490 h1        1 MOL      0.162563
    131 H61         2.7520   -1.2150   -1.3480 ho        1 MOL      0.338841
    132 N12         6.7150   -3.1070   -0.5880 n         1 MOL     -0.482615
    133 C43         8.1410   -2.5700   -0.3930 c3        1 MOL      0.171603
    134 C44         8.2250   -1.0590   -0.7200 c         1 MOL      0.465409
    135 O18         8.7290   -0.2750    0.0860 o         1 MOL     -0.515292
    136 C45         9.1310   -3.3460   -1.2070 c3        1 MOL     -0.303902
    137 H62         6.6040   -3.8830   -1.2200 hn        1 MOL      0.314899
    138 H63         8.4110   -2.6480    0.6610 h1        1 MOL      0.071061
    139 H64         8.8810   -3.1300   -2.2480 hc        1 MOL      0.086850
    140 H65        10.0980   -2.9240   -0.9240 hc        1 MOL      0.086850
    141 H66         8.9490   -4.4120   -1.0360 hc        1 MOL      0.086850
    142 N13         7.6580   -0.6790   -1.8320 n         1 MOL     -0.388910
    143 C46         7.6800    0.7200   -2.3880 c3        1 MOL      0.132109
    144 C47         6.7590    1.6140   -1.5350 c         1 MOL      0.312479
    145 O19         7.0990    2.8230   -1.3160 o         1 MOL     -0.538426
    146 C48         7.2610    0.7140   -3.8260 c3        1 MOL     -0.314656
    147 H67         7.2130   -1.3600   -2.4330 hn        1 MOL      0.293409
    148 H68         8.7170    1.0380   -2.2910 h1        1 MOL      0.103985
    149 H69         7.9260    0.0510   -4.3770 hc        1 MOL      0.086852
    150 H70         6.2260    0.3790   -3.8580 hc        1 MOL      0.086852
    151 H71         7.4780    1.7200   -4.1660 hc        1 MOL      0.086852
    152 N14         5.6410    1.1680   -1.0150 n         1 MOL     -0.092466
    153 C49         4.8070    2.0570   -0.1310 c3        1 MOL     -0.147088
    154 C50         5.2120    1.9860    1.3940 c         1 MOL      0.443777
    155 O20         5.0070    2.9440    2.1910 o         1 MOL     -0.555244
    156 C51         3.3480    1.7730   -0.4830 c3        1 MOL      0.188633
    157 C52         2.7290    0.8410    0.5510 c3        1 MOL      0.143952
    158 C53         1.4120    0.3300    0.0210 c         1 MOL      0.535508
    159 O21         1.3110   -0.7460   -0.5660 o         1 MOL     -0.639143
    160 O22         0.4230    1.0870    0.1790 o         1 MOL     -0.639143
    161 H72         5.3060    0.3110   -1.4190 hn        1 MOL      0.202643
    162 H73         4.9040    3.0980   -0.4440 h1        1 MOL      0.123361
    163 H74         3.3380    1.3100   -1.4660 hc        1 MOL     -0.096073
    164 H75         2.6850    2.6400   -0.4780 hc        1 MOL     -0.096073
    165 H76         2.5370    1.4230    1.4490 hc        1 MOL     -0.026274
    166 H77         3.3880    0.0040    0.7750 hc        1 MOL     -0.026274
    167 N15         5.8970    0.9300    1.8550 n         1 MOL     -0.038992
    168 C54         6.5690    0.9190    3.1930 c3        1 MOL     -0.519501
    169 H78         6.6500    1.9390    3.5670 h1        1 MOL      0.185973
    170 H79         5.9810    0.3220    3.8910 h1        1 MOL      0.185973
    171 H80         7.5660    0.4880    3.0960 h1        1 MOL      0.185973
    172 H81         5.9430    0.1520    1.2150 hn        1 MOL      0.091435
    173 Ca1        -1.3850    0.0140   -1.0880 Ca        1 MOL      1.762007
    174 O23        -0.0140    1.4590   -2.7830 oh        1 MOL     -0.882148
    175 H82         0.7310    1.8320   -3.2550 ho        1 MOL      0.418550
    176 H83        -0.7690    1.6500   -3.3330 ho        1 MOL      0.418550
    177 O24        -0.6340   -1.7620   -2.9770 oh        1 MOL     -0.882148
    178 H84        -1.0190   -1.9190   -3.8340 ho        1 MOL      0.418550
    179 H85         0.2800   -2.0490   -3.0570 ho        1 MOL      0.418550
@<TRIPOS>BOND
     1    1    2 1   
     2    1    4 1   
     3    1    5 1   
     4    1    6 1   
     5    2    3 2   
     6    2    7 1   
     7    7    8 1   
     8    7   15 1   
     9    8    9 1   
    10    8   11 1   
    11    8   16 1   
    12    9   10 2   
    13    9   19 1   
    14   11   12 1   
    15   11   17 1   
    16   11   18 1   
    17   12   13 1   
    18   12   14 1   
    19   19   20 1   
    20   19   28 1   
    21   20   21 1   
    22   20   23 1   
    23   20   29 1   
    24   21   22 2   
    25   21   41 1   
    26   23   24 1   
    27   23   30 1   
    28   23   31 1   
    29   24   25 1   
    30   24   32 1   
    31   24   33 1   
    32   25   26 1   
    33   25   34 1   
    34   25   35 1   
    35   26   27 1   
    36   26   36 1   
    37   26   37 1   
    38   27   38 1   
    39   27   39 1   
    40   27   40 1   
    41   41   42 1   
    42   41   49 1   
    43   42   43 1   
    44   42   45 1   
    45   42   50 1   
    46   43   44 2   
    47   43   53 1   
    48   45   46 1   
    49   45   51 1   
    50   45   52 1   
    51   46   47 1   
    52   46   48 1   
    53   53   54 1   
    54   53   57 1   
    55   54   55 1   
    56   54   58 1   
    57   54   59 1   
    58   55   56 2   
    59   55   60 1   
    60   60   61 1   
    61   60   68 1   
    62   61   62 1   
    63   61   64 1   
    64   61   69 1   
    65   62   63 2   
    66   62   74 1   
    67   64   65 1   
    68   64   70 1   
    69   64   71 1   
    70   65   66 1   
    71   65   67 2   
    72   66   72 1   
    73   66   73 1   
    74   74   75 1   
    75   74   78 1   
    76   75   76 1   
    77   75   79 1   
    78   75   80 1   
    79   76   77 2   
    80   76   81 1   
    81   81   82 1   
    82   81   93 1   
    83   82   83 1   
    84   82   85 1   
    85   82   94 1   
    86   83   84 2   
    87   83  102 1   
    88   85   86 1   
    89   85   95 1   
    90   85   96 1   
    91   86   87 ar  
    92   86   88 ar  
    93   87   89 ar  
    94   87   97 1   
    95   88   90 ar  
    96   88   98 1   
    97   89   91 ar  
    98   89   99 1   
    99   90   91 ar  
   100   90  100 1   
   101   91   92 1   
   102   92  101 1   
   103  102  103 1   
   104  102  110 1   
   105  103  104 1   
   106  103  106 1   
   107  103  111 1   
   108  104  105 2   
   109  104  121 1   
   110  106  107 1   
   111  106  108 1   
   112  106  112 1   
   113  107  109 1   
   114  107  113 1   
   115  107  114 1   
   116  108  115 1   
   117  108  116 1   
   118  108  117 1   
   119  109  118 1   
   120  109  119 1   
   121  109  120 1   
   122  121  122 1   
   123  121  127 1   
   124  122  123 1   
   125  122  125 1   
   126  122  128 1   
   127  123  124 2   
   128  123  132 1   
   129  125  126 1   
   130  125  129 1   
   131  125  130 1   
   132  126  131 1   
   133  132  133 1   
   134  132  137 1   
   135  133  134 1   
   136  133  136 1   
   137  133  138 1   
   138  134  135 2   
   139  134  142 1   
   140  136  139 1   
   141  136  140 1   
   142  136  141 1   
   143  142  143 1   
   144  142  147 1   
   145  143  144 1   
   146  143  146 1   
   147  143  148 1   
   148  144  145 2   
   149  144  152 1   
   150  146  149 1   
   151  146  150 1   
   152  146  151 1   
   153  152  153 1   
   154  152  161 1   
   155  153  154 1   
   156  153  156 1   
   157  153  162 1   
   158  154  155 2   
   159  154  167 1   
   160  156  157 1   
   161  156  163 1   
   162  156  164 1   
   163  157  158 1   
   164  157  165 1   
   165  157  166 1   
   166  158  159 1   
   167  158  160 1   
   168  167  168 1   
   169  167  172 1   
   170  168  169 1   
   171  168  170 1   
   172  168  171 1   
   173  174  175 1   
   174  174  176 1   
   175  177  178 1   
   176  177  179 1   
@<TRIPOS>SUBSTRUCTURE
     1 MOL         1 TEMP              0 ****  ****    0 ROOT
