@<TRIPOS>MOLECULE
MOL
  182   178     1     0     0
SMALL
resp


@<TRIPOS>ATOM
      1 C1         -2.5070   -2.4560    5.2290 c3        1 MOL     -0.230742
      2 C2         -1.6720   -2.6270    3.9500 c         1 MOL      0.716906
      3 O1         -2.2060   -3.0700    2.9320 o         1 MOL     -0.589042
      4 H1         -2.1040   -1.6310    5.8180 hc        1 MOL      0.062046
      5 H2         -3.5410   -2.2400    4.9630 hc        1 MOL      0.062046
      6 H3         -2.4660   -3.3730    5.8150 hc        1 MOL      0.062046
      7 N1         -0.3480   -2.3750    4.0020 n         1 MOL     -0.606384
      8 C3          0.5050   -2.2350    2.8270 c3        1 MOL      0.146461
      9 C4          0.7880   -3.5920    2.2190 c         1 MOL      0.468270
     10 O2          1.4710   -4.4900    2.7860 o         1 MOL     -0.534033
     11 C5          1.7810   -1.5020    3.2240 c3        1 MOL     -0.102544
     12 C6          2.7400   -1.1390    2.0710 c         1 MOL      0.802482
     13 O3          3.8310   -0.6030    2.3460 o         1 MOL     -0.759000
     14 O4          2.3660   -1.3000    0.9180 o         1 MOL     -0.759000
     15 H4         -0.0670   -1.9720    4.8860 hn        1 MOL      0.319254
     16 H5         -0.0270   -1.7080    2.0350 h1        1 MOL      0.022896
     17 H6          2.2160   -2.0800    4.0440 hc        1 MOL      0.026735
     18 H7          1.5270   -0.5160    3.6180 hc        1 MOL      0.026735
     19 N2          0.1510   -3.8840    1.0550 n         1 MOL     -0.015438
     20 C7          0.1030   -5.2290    0.4730 c3        1 MOL     -0.140490
     21 C8          1.3600   -5.6660   -0.2670 c         1 MOL      0.461685
     22 O5          1.6020   -6.8510   -0.4320 o         1 MOL     -0.551960
     23 C9         -1.2020   -5.4790   -0.2710 c3        1 MOL     -0.207011
     24 C10        -1.3700   -4.5850   -1.4850 c3        1 MOL      0.050809
     25 C11        -2.7050   -4.8540   -2.1000 c3        1 MOL     -0.151662
     26 C12        -2.8490   -3.7650   -3.1990 c3        1 MOL      0.278131
     27 N3         -2.7590   -4.1490   -4.5870 n4        1 MOL     -0.500040
     28 H8         -0.3140   -3.1640    0.5270 hn        1 MOL      0.029578
     29 H9          0.0470   -5.9160    1.3150 h1        1 MOL      0.141848
     30 H10        -2.0030   -5.3750    0.4720 hc        1 MOL      0.099405
     31 H11        -1.2870   -6.5000   -0.6530 hc        1 MOL      0.099405
     32 H12        -0.5440   -4.7280   -2.1830 hc        1 MOL      0.027657
     33 H13        -1.2070   -3.5760   -1.1060 hc        1 MOL      0.027657
     34 H14        -3.4910   -4.7270   -1.3470 hc        1 MOL      0.071528
     35 H15        -2.6550   -5.8500   -2.5360 hc        1 MOL      0.071528
     36 H16        -2.2180   -2.8950   -3.0340 hx        1 MOL     -0.022616
     37 H17        -3.8270   -3.2980   -3.0450 hx        1 MOL     -0.022616
     38 H18        -1.7980   -4.3710   -4.8130 hn        1 MOL      0.357005
     39 H19        -3.5020   -4.8200   -4.7550 hn        1 MOL      0.357005
     40 H20        -3.0220   -3.4090   -5.2160 hn        1 MOL      0.357005
     41 N4          2.2560   -4.7480   -0.5970 n         1 MOL     -0.253337
     42 C13         3.6510   -5.0760   -0.9930 c3        1 MOL      0.002304
     43 C14         4.7190   -4.4030   -0.1660 c         1 MOL      0.403831
     44 O6          5.9220   -4.5470   -0.4660 o         1 MOL     -0.518467
     45 C15         3.8050   -4.6700   -2.5000 c3        1 MOL     -0.116230
     46 C16         3.5140   -3.1620   -2.8760 c         1 MOL      0.747200
     47 O7          3.8860   -2.7980   -4.0090 o         1 MOL     -0.712631
     48 O8          2.9630   -2.4240   -2.0360 o         1 MOL     -0.712631
     49 H21         2.0120   -3.7690   -0.4600 hn        1 MOL      0.106282
     50 H22         3.8450   -6.1500   -0.9490 h1        1 MOL      0.139020
     51 H23         3.1970   -5.3650   -3.0900 hc        1 MOL      0.026527
     52 H24         4.7990   -4.9170   -2.8590 hc        1 MOL      0.026527
     53 N5          4.4230   -3.8550    0.9930 n         1 MOL     -0.201645
     54 C17         5.4560   -3.3640    1.8940 c3        1 MOL      0.042671
     55 C18         6.4440   -2.3280    1.3490 c         1 MOL      0.403947
     56 O9          7.6460   -2.4620    1.6150 o         1 MOL     -0.540238
     57 H25         3.4710   -3.8030    1.3380 hn        1 MOL      0.161044
     58 H26         6.0370   -4.2180    2.2380 h1        1 MOL      0.051070
     59 H27         4.9890   -3.1030    2.8460 h1        1 MOL      0.051070
     60 N6          5.8800   -1.3500    0.6430 n         1 MOL     -0.123058
     61 C19         6.5540   -0.2250   -0.0050 c3        1 MOL      0.036405
     62 C20         6.5080    1.2150    0.6450 c         1 MOL      0.290169
     63 O10         7.1120    2.1710    0.1770 o         1 MOL     -0.442626
     64 C21         6.2680   -0.2720   -1.4680 c3        1 MOL     -0.184525
     65 C22         5.1220    0.6720   -1.8610 c         1 MOL      0.635431
     66 N7          5.4260    1.7680   -2.5720 n         1 MOL     -0.792987
     67 O11         3.9880    0.5040   -1.4240 o         1 MOL     -0.679628
     68 H28         4.8860   -1.2720    0.8210 hn        1 MOL      0.121512
     69 H29         7.6350   -0.3820    0.0550 h1        1 MOL      0.113391
     70 H30         5.9180   -1.2590   -1.7750 hc        1 MOL      0.086244
     71 H31         7.1800    0.0450   -1.9640 hc        1 MOL      0.086244
     72 H32         6.3520    2.0040   -2.8870 hn        1 MOL      0.377424
     73 H33         4.7350    2.4750   -2.8060 hn        1 MOL      0.377424
     74 N8          5.7890    1.3200    1.7460 n         1 MOL     -0.258225
     75 C23         5.5770    2.5840    2.4690 c3        1 MOL     -0.115896
     76 C24         4.3870    3.4750    2.1980 c         1 MOL      0.639213
     77 O12         4.4440    4.5480    2.7560 o         1 MOL     -0.559980
     78 H34         5.1570    0.5620    1.9680 hn        1 MOL      0.260391
     79 H35         6.4110    3.2590    2.2720 h1        1 MOL      0.097420
     80 H36         5.6090    2.4350    3.5470 h1        1 MOL      0.097420
     81 N9          3.4300    3.0010    1.3920 n         1 MOL     -0.692457
     82 C25         2.3050    3.7790    0.8360 c3        1 MOL      0.663256
     83 C26         1.0840    2.7830    0.8590 c         1 MOL      0.186735
     84 O13         1.1160    1.7020    0.2850 o         1 MOL     -0.574739
     85 C27         2.4560    4.2820   -0.6220 c3        1 MOL     -0.099651
     86 C28         3.6330    5.2140   -0.7670 ca        1 MOL      0.050379
     87 C29         4.9780    4.8020   -0.7390 ca        1 MOL     -0.262040
     88 C30         3.3250    6.5690   -0.9320 ca        1 MOL     -0.262040
     89 C31         6.0410    5.6930   -1.1050 ca        1 MOL     -0.032332
     90 C32         4.4290    7.5060   -1.1690 ca        1 MOL     -0.032332
     91 C33         5.7340    7.0200   -1.4200 ca        1 MOL      0.056277
     92 O14         6.8270    7.7990   -1.5950 oh        1 MOL     -0.369245
     93 H37         3.5280    1.9980    1.2550 hn        1 MOL      0.407853
     94 H38         2.0740    4.5890    1.5320 h1        1 MOL     -0.065758
     95 H39         1.5950    4.8800   -0.9170 hc        1 MOL      0.042351
     96 H40         2.5770    3.4060   -1.2510 hc        1 MOL      0.042351
     97 H41         5.1430    3.7600   -0.4890 ha        1 MOL      0.124390
     98 H42         2.3390    7.0040   -0.9150 ha        1 MOL      0.124390
     99 H43         7.0630    5.3760   -1.1920 ha        1 MOL      0.098225
    100 H44         4.2410    8.5640   -1.2500 ha        1 MOL      0.098225
    101 H45         6.4830    8.6920   -1.6530 ho        1 MOL      0.320501
    102 N10        -0.1340    3.3110    1.1080 n         1 MOL     -0.401804
    103 C34        -1.3960    2.6080    1.0100 c3        1 MOL     -0.090434
    104 C35        -2.3700    3.4310    0.2080 c         1 MOL      0.472167
    105 O15        -2.6540    4.5920    0.4600 o         1 MOL     -0.511695
    106 C36        -2.0130    2.1320    2.2940 c3        1 MOL      0.133236
    107 C37        -2.0960    3.2480    3.3430 c3        1 MOL     -0.362044
    108 C38        -1.1280    0.9830    2.7900 c3        1 MOL     -0.293019
    109 C39        -2.7820    2.7080    4.6590 c3        1 MOL      0.029075
    110 H46        -0.1330    4.2940    1.2860 hn        1 MOL      0.279150
    111 H47        -1.2180    1.6850    0.4480 h1        1 MOL      0.318095
    112 H48        -3.0440    1.8500    2.0770 hc        1 MOL      0.048396
    113 H49        -2.7890    4.0230    3.0080 hc        1 MOL      0.128520
    114 H50        -1.1090    3.6400    3.5760 hc        1 MOL      0.128520
    115 H51        -0.1070    1.2530    3.0560 hc        1 MOL      0.098246
    116 H52        -1.4600    0.4650    3.6880 hc        1 MOL      0.098246
    117 H53        -1.0730    0.2290    2.0120 hc        1 MOL      0.098246
    118 H54        -3.2140    3.4710    5.3060 hc        1 MOL     -0.002090
    119 H55        -3.6650    2.1400    4.3780 hc        1 MOL     -0.002090
    120 H56        -2.0960    2.1020    5.2520 hc        1 MOL     -0.002090
    121 N11        -2.9680    2.6890   -0.7640 n         1 MOL     -0.195381
    122 C40        -4.1440    3.1720   -1.5350 c3        1 MOL     -0.117104
    123 C41        -5.4270    2.9590   -0.7980 c         1 MOL      0.464332
    124 O16        -5.5340    2.2920    0.2670 o         1 MOL     -0.369968
    125 C42        -4.1750    2.3680   -2.8450 c3        1 MOL     -0.034975
    126 O17        -4.2340    0.9700   -2.5880 oh        1 MOL     -0.530071
    127 H57        -2.6040    1.8200   -1.1270 hn        1 MOL      0.074281
    128 H58        -4.0520    4.2400   -1.7640 h1        1 MOL      0.088432
    129 H59        -3.3610    2.5450   -3.5360 h1        1 MOL      0.083751
    130 H60        -5.0200    2.7820   -3.4040 h1        1 MOL      0.083751
    131 H61        -3.3720    0.7140   -2.2540 ho        1 MOL      0.319436
    132 N12        -6.5220    3.5320   -1.3420 n         1 MOL     -0.396564
    133 C43        -7.8500    3.1980   -0.8130 c3        1 MOL      0.085641
    134 C44        -8.1960    1.6950   -0.7800 c         1 MOL      0.483117
    135 O18        -8.7650    1.2640    0.2250 o         1 MOL     -0.496227
    136 C45        -8.9710    3.9670   -1.5270 c3        1 MOL     -0.360694
    137 H62        -6.4770    4.1350   -2.1510 hn        1 MOL      0.283704
    138 H63        -7.7950    3.5500    0.2190 h1        1 MOL      0.088727
    139 H64        -9.9320    3.6780   -1.1130 hc        1 MOL      0.113520
    140 H65        -8.8170    5.0350   -1.3850 hc        1 MOL      0.113520
    141 H66        -9.0470    3.6850   -2.5840 hc        1 MOL      0.113520
    142 N13        -7.8720    0.9060   -1.8260 n         1 MOL     -0.445159
    143 C46        -7.7980   -0.5530   -1.8370 c3        1 MOL      0.219746
    144 C47        -7.0700   -1.0900   -0.5960 c         1 MOL      0.232317
    145 O19        -7.5380   -2.0480    0.0230 o         1 MOL     -0.494695
    146 C48        -7.2690   -0.9930   -3.1890 c3        1 MOL     -0.223526
    147 H67        -7.5250    1.3740   -2.6530 hn        1 MOL      0.272093
    148 H68        -8.7980   -1.0020   -1.9170 h1        1 MOL      0.056080
    149 H69        -7.9430   -0.7250   -3.9960 hc        1 MOL      0.056851
    150 H70        -6.2710   -0.5790   -3.3310 hc        1 MOL      0.056851
    151 H71        -7.1490   -2.0760   -3.2200 hc        1 MOL      0.056851
    152 N14        -5.9500   -0.5340   -0.1270 n         1 MOL      0.021886
    153 C49        -5.1360   -1.0760    0.9680 c3        1 MOL     -0.096880
    154 C50        -5.7030   -0.7630    2.3400 c         1 MOL      0.448311
    155 O20        -5.6180   -1.4790    3.3210 o         1 MOL     -0.531940
    156 C51        -3.6400   -0.7090    0.7990 c3        1 MOL      0.137884
    157 C52        -2.9920   -1.4210   -0.2970 c3        1 MOL      0.088617
    158 C53        -1.7920   -0.6590   -0.8300 c         1 MOL      0.444622
    159 O21        -2.0540    0.2630   -1.6270 o         1 MOL     -0.584297
    160 O22        -0.6150   -0.9270   -0.3900 o         1 MOL     -0.584297
    161 H72        -5.5650    0.2500   -0.6380 hn        1 MOL      0.125640
    162 H73        -5.1250   -2.1650    1.0460 h1        1 MOL      0.087682
    163 H74        -3.1180   -0.8700    1.7400 hc        1 MOL     -0.073907
    164 H75        -3.5910    0.3510    0.5330 hc        1 MOL     -0.073907
    165 H76        -3.6810   -1.7290   -1.0840 hc        1 MOL      0.000827
    166 H77        -2.6060   -2.3210    0.1910 hc        1 MOL      0.000827
    167 N15        -6.3440    0.3990    2.4740 n         1 MOL     -0.045579
    168 C54        -7.0380    0.7680    3.7280 c3        1 MOL     -0.394769
    169 H78        -6.4430    1.5050    4.2680 h1        1 MOL      0.140070
    170 H79        -8.0140    1.1940    3.4930 h1        1 MOL      0.140070
    171 H80        -7.1680   -0.1190    4.3480 h1        1 MOL      0.140070
    172 H81        -6.3570    1.1370    1.7910 hn        1 MOL      0.129866
    173 Ca1         1.5410   -0.2810   -1.5100 Ca        1 MOL      1.808726
    174 O23         2.5690   -0.2330   -4.0750 oh        1 MOL     -0.893783
    175 H82         2.8730   -1.1300   -3.9590 ho        1 MOL      0.426179
    176 H83         3.2320    0.1850   -4.6200 ho        1 MOL      0.426179
    177 O24         0.1130    1.5400   -2.8200 oh        1 MOL     -0.893783
    178 H84         0.2280    1.9510   -3.6790 ho        1 MOL      0.426179
    179 H85        -0.8220    1.3650   -2.7650 ho        1 MOL      0.426179
    180 O25         0.0950   -1.7950   -3.2360 oh        1 MOL     -0.893783
    181 H86         0.0550   -2.5460   -3.8230 ho        1 MOL      0.426179
    182 H87        -0.5740   -1.1980   -3.5470 ho        1 MOL      0.426179
@<TRIPOS>BOND
     1    1    2 1   
     2    1    4 1   
     3    1    5 1   
     4    1    6 1   
     5    2    3 2   
     6    2    7 1   
     7    7    8 1   
     8    7   15 1   
     9    8    9 1   
    10    8   11 1   
    11    8   16 1   
    12    9   10 2   
    13    9   19 1   
    14   11   12 1   
    15   11   17 1   
    16   11   18 1   
    17   12   13 1   
    18   12   14 1   
    19   19   20 1   
    20   19   28 1   
    21   20   21 1   
    22   20   23 1   
    23   20   29 1   
    24   21   22 2   
    25   21   41 1   
    26   23   24 1   
    27   23   30 1   
    28   23   31 1   
    29   24   25 1   
    30   24   32 1   
    31   24   33 1   
    32   25   26 1   
    33   25   34 1   
    34   25   35 1   
    35   26   27 1   
    36   26   36 1   
    37   26   37 1   
    38   27   38 1   
    39   27   39 1   
    40   27   40 1   
    41   41   42 1   
    42   41   49 1   
    43   42   43 1   
    44   42   45 1   
    45   42   50 1   
    46   43   44 2   
    47   43   53 1   
    48   45   46 1   
    49   45   51 1   
    50   45   52 1   
    51   46   47 1   
    52   46   48 1   
    53   53   54 1   
    54   53   57 1   
    55   54   55 1   
    56   54   58 1   
    57   54   59 1   
    58   55   56 2   
    59   55   60 1   
    60   60   61 1   
    61   60   68 1   
    62   61   62 1   
    63   61   64 1   
    64   61   69 1   
    65   62   63 2   
    66   62   74 1   
    67   64   65 1   
    68   64   70 1   
    69   64   71 1   
    70   65   66 1   
    71   65   67 2   
    72   66   72 1   
    73   66   73 1   
    74   74   75 1   
    75   74   78 1   
    76   75   76 1   
    77   75   79 1   
    78   75   80 1   
    79   76   77 2   
    80   76   81 1   
    81   81   82 1   
    82   81   93 1   
    83   82   83 1   
    84   82   85 1   
    85   82   94 1   
    86   83   84 2   
    87   83  102 1   
    88   85   86 1   
    89   85   95 1   
    90   85   96 1   
    91   86   87 ar  
    92   86   88 ar  
    93   87   89 ar  
    94   87   97 1   
    95   88   90 ar  
    96   88   98 1   
    97   89   91 ar  
    98   89   99 1   
    99   90   91 ar  
   100   90  100 1   
   101   91   92 1   
   102   92  101 1   
   103  102  103 1   
   104  102  110 1   
   105  103  104 1   
   106  103  106 1   
   107  103  111 1   
   108  104  105 2   
   109  104  121 1   
   110  106  107 1   
   111  106  108 1   
   112  106  112 1   
   113  107  109 1   
   114  107  113 1   
   115  107  114 1   
   116  108  115 1   
   117  108  116 1   
   118  108  117 1   
   119  109  118 1   
   120  109  119 1   
   121  109  120 1   
   122  121  122 1   
   123  121  127 1   
   124  122  123 1   
   125  122  125 1   
   126  122  128 1   
   127  123  124 2   
   128  123  132 1   
   129  125  126 1   
   130  125  129 1   
   131  125  130 1   
   132  126  131 1   
   133  132  133 1   
   134  132  137 1   
   135  133  134 1   
   136  133  136 1   
   137  133  138 1   
   138  134  135 2   
   139  134  142 1   
   140  136  139 1   
   141  136  140 1   
   142  136  141 1   
   143  142  143 1   
   144  142  147 1   
   145  143  144 1   
   146  143  146 1   
   147  143  148 1   
   148  144  145 2   
   149  144  152 1   
   150  146  149 1   
   151  146  150 1   
   152  146  151 1   
   153  152  153 1   
   154  152  161 1   
   155  153  154 1   
   156  153  156 1   
   157  153  162 1   
   158  154  155 2   
   159  154  167 1   
   160  156  157 1   
   161  156  163 1   
   162  156  164 1   
   163  157  158 1   
   164  157  165 1   
   165  157  166 1   
   166  158  159 1   
   167  158  160 1   
   168  167  168 1   
   169  167  172 1   
   170  168  169 1   
   171  168  170 1   
   172  168  171 1   
   173  174  175 1   
   174  174  176 1   
   175  177  178 1   
   176  177  179 1   
   177  180  181 1   
   178  180  182 1   
@<TRIPOS>SUBSTRUCTURE
     1 MOL         1 TEMP              0 ****  ****    0 ROOT
