@<TRIPOS>MOLECULE
MOL
  189   185     1     0     0
SMALL
resp


@<TRIPOS>ATOM
      1 C1          0.1700   -4.4040    5.9180 c3        1 MOL     -0.310706
      2 C2          0.6970   -3.7200    4.7000 c         1 MOL      0.703304
      3 O1          0.8440   -2.5010    4.6560 o         1 MOL     -0.601570
      4 H1          0.5480   -5.4260    5.9530 hc        1 MOL      0.081628
      5 H2          0.4970   -3.8660    6.8080 hc        1 MOL      0.081628
      6 H3         -0.9200   -4.4210    5.8830 hc        1 MOL      0.081628
      7 N1          0.9480   -4.4830    3.5840 n         1 MOL     -0.525793
      8 C3          1.5130   -4.1120    2.3200 c3        1 MOL      0.202538
      9 C4          1.1540   -5.1670    1.2290 c         1 MOL      0.466372
     10 O2          0.9820   -6.3790    1.4240 o         1 MOL     -0.532394
     11 C5          3.0550   -4.0040    2.5330 c3        1 MOL     -0.300002
     12 C6          3.7760   -3.6280    1.2970 c         1 MOL      0.792738
     13 O3          4.8950   -4.1510    1.0470 o         1 MOL     -0.707337
     14 O4          3.2840   -2.7770    0.5530 o         1 MOL     -0.707337
     15 H4          0.8540   -5.4740    3.7200 hn        1 MOL      0.267843
     16 H5          1.1710   -3.1450    1.9460 h1        1 MOL     -0.030931
     17 H6          3.3660   -4.9420    3.0120 hc        1 MOL      0.053608
     18 H7          3.2320   -3.2650    3.3110 hc        1 MOL      0.053608
     19 N2          1.0720   -4.7060   -0.0680 n         1 MOL     -0.268295
     20 C7          0.8760   -5.6490   -1.2460 c3        1 MOL     -0.388325
     21 C8          1.5940   -5.1090   -2.4780 c         1 MOL      0.645629
     22 O5          1.4450   -5.6970   -3.5420 o         1 MOL     -0.585224
     23 C9         -0.6720   -6.0000   -1.5340 c3        1 MOL      0.264890
     24 C10        -1.4830   -4.7510   -2.0110 c3        1 MOL     -0.016101
     25 C11        -1.3850   -6.8120   -0.3970 c3        1 MOL     -0.360653
     26 C12        -2.9780   -4.8780   -2.2310 c3        1 MOL     -0.282201
     27 H8          1.2500   -3.7360   -0.2710 hn        1 MOL      0.384036
     28 H9          1.2760   -6.6220   -0.9680 h1        1 MOL      0.177467
     29 H10        -0.7070   -6.7200   -2.3450 hc        1 MOL     -0.021219
     30 H11        -0.9710   -4.4450   -2.9240 hc        1 MOL      0.039934
     31 H12        -1.3050   -3.9570   -1.2830 hc        1 MOL      0.039934
     32 H13        -2.2790   -7.3160   -0.7670 hc        1 MOL      0.079861
     33 H14        -0.6970   -7.5750   -0.0120 hc        1 MOL      0.079861
     34 H15        -1.6180   -6.3080    0.5360 hc        1 MOL      0.079861
     35 H16        -3.3350   -5.6640   -2.9030 hc        1 MOL      0.070244
     36 H17        -3.4970   -5.0820   -1.2960 hc        1 MOL      0.070244
     37 H18        -3.2510   -3.9270   -2.6900 hc        1 MOL      0.070244
     38 N3          2.4990   -4.1260   -2.3540 n         1 MOL     -0.369920
     39 C13         3.3070   -3.6280   -3.4720 c3        1 MOL      0.010155
     40 C14         4.7280   -3.1290   -3.1340 c         1 MOL      0.349819
     41 O6          5.5140   -2.9030   -4.1290 o         1 MOL     -0.535185
     42 C15         2.5720   -2.4360   -4.0190 c3        1 MOL     -0.312052
     43 C16         2.1670   -1.2480   -3.0850 c         1 MOL      0.842955
     44 O7          2.9630   -1.0240   -2.1290 o         1 MOL     -0.726131
     45 O8          1.1460   -0.5660   -3.3050 o         1 MOL     -0.726131
     46 H19         2.5690   -3.6090   -1.4980 hn        1 MOL      0.146062
     47 H20         3.3070   -4.3840   -4.2630 h1        1 MOL      0.124437
     48 H21         1.6690   -2.8260   -4.4840 hc        1 MOL      0.075922
     49 H22         3.2190   -2.0040   -4.7840 hc        1 MOL      0.075922
     50 N4          5.1310   -3.0190   -1.8610 n         1 MOL     -0.106087
     51 C17         6.4890   -2.7180   -1.4590 c3        1 MOL     -0.170173
     52 C18         7.1180   -1.3600   -1.8100 c         1 MOL      0.387498
     53 O9          8.3410   -1.2330   -1.9750 o         1 MOL     -0.582863
     54 H23         4.4850   -2.9850   -1.0800 hn        1 MOL      0.138697
     55 H24         7.0850   -3.5470   -1.8540 h1        1 MOL      0.090142
     56 H25         6.4720   -2.6790   -0.3740 h1        1 MOL      0.090142
     57 N5          6.2130   -0.4520   -1.9260 n         1 MOL     -0.075643
     58 C19         6.6040    0.8970   -2.3540 c3        1 MOL      0.018111
     59 C20         7.1340    1.6710   -1.1540 c         1 MOL      0.426920
     60 O10         7.8400    2.6160   -1.4190 o         1 MOL     -0.547051
     61 C21         5.4900    1.6560   -3.0150 c3        1 MOL     -0.411732
     62 C22         4.3110    1.8670   -2.1880 c         1 MOL      0.826587
     63 O11         4.1440    1.3350   -1.0700 o         1 MOL     -0.709158
     64 O12         3.3390    2.4380   -2.7650 o         1 MOL     -0.709158
     65 H26         5.2690   -0.7070   -1.6860 hn        1 MOL      0.208688
     66 H27         7.4700    0.8560   -3.0160 h1        1 MOL      0.105485
     67 H28         5.1640    1.0230   -3.8370 hc        1 MOL      0.115748
     68 H29         5.8450    2.6520   -3.3010 hc        1 MOL      0.115748
     69 N6          6.8070    1.4200    0.1490 n         1 MOL     -0.245450
     70 C23         7.2350    2.3060    1.2600 c3        1 MOL     -0.302355
     71 C24         6.2170    3.3070    1.7490 c         1 MOL      0.574817
     72 O13         6.4420    3.9490    2.7420 o         1 MOL     -0.611647
     73 H30         6.2550    0.5900    0.2670 hn        1 MOL      0.181893
     74 H31         8.1680    2.8120    1.0020 h1        1 MOL      0.124660
     75 H32         7.3140    1.6060    2.0880 h1        1 MOL      0.124660
     76 N7          5.0980    3.2810    1.0890 n         1 MOL     -0.225039
     77 C25         3.9340    4.0790    1.4200 c3        1 MOL     -0.043092
     78 C26         2.6980    3.1600    1.7080 c         1 MOL      0.428167
     79 O14         2.7050    1.9440    1.5070 o         1 MOL     -0.478779
     80 C27         3.5720    5.0040    0.2620 c3        1 MOL      0.258998
     81 C28         4.7450    5.8860   -0.2100 c3        1 MOL     -0.395907
     82 C29         4.3600    7.1350   -0.9710 c         1 MOL      0.740885
     83 N8          5.2390    7.6100   -1.8590 n         1 MOL     -0.818811
     84 O15         3.3730    7.7870   -0.7210 o         1 MOL     -0.570701
     85 H33         5.0430    2.6760    0.2770 hn        1 MOL      0.274065
     86 H34         4.1240    4.7640    2.2520 h1        1 MOL      0.051205
     87 H35         2.7620    5.6450    0.5840 hc        1 MOL     -0.026643
     88 H36         3.2700    4.4270   -0.6130 hc        1 MOL     -0.026643
     89 H37         5.4600    5.2390   -0.7210 hc        1 MOL      0.088063
     90 H38         5.2530    6.3250    0.6500 hc        1 MOL      0.088063
     91 H39         6.1280    7.1310   -1.8500 hn        1 MOL      0.354504
     92 H40         5.0970    8.4950   -2.3170 hn        1 MOL      0.354504
     93 N9          1.6420    3.6570    2.3700 n         1 MOL     -0.407699
     94 C30         0.3290    3.0080    2.5600 c3        1 MOL      0.003565
     95 C31        -0.6060    3.4320    1.4490 c         1 MOL      0.544377
     96 O16        -0.7290    4.6230    1.1680 o         1 MOL     -0.601559
     97 C32        -0.1250    3.4150    3.9600 c3        1 MOL      0.114226
     98 C33        -1.4800    2.8990    4.3920 c3        1 MOL     -0.179927
     99 C34         0.9430    2.9430    4.9480 c3        1 MOL     -0.179927
    100 H41         1.7030    4.5730    2.7890 hn        1 MOL      0.289215
    101 H42         0.3970    1.9360    2.6710 h1        1 MOL      0.094629
    102 H43        -0.0810    4.5000    4.0380 hc        1 MOL     -0.002139
    103 H44        -1.4640    1.8120    4.4160 hc        1 MOL      0.038738
    104 H45        -1.7080    3.3490    5.3590 hc        1 MOL      0.038738
    105 H46        -2.2580    3.1560    3.6740 hc        1 MOL      0.038738
    106 H47         1.8860    3.4770    4.8730 hc        1 MOL      0.038738
    107 H48         0.6010    3.0850    5.9720 hc        1 MOL      0.038738
    108 H49         1.1130    1.8680    5.0480 hc        1 MOL      0.038738
    109 N10        -1.4610    2.5520    0.9730 n         1 MOL     -0.461654
    110 C35        -2.5210    2.6660    0.0270 c3        1 MOL      0.565863
    111 C36        -3.8840    2.4070    0.7380 c         1 MOL      0.034328
    112 O17        -3.9940    1.8140    1.8100 o         1 MOL     -0.206451
    113 C37        -2.2740    1.8900   -1.2450 c3        1 MOL     -0.403553
    114 C38        -3.5600    1.6670   -2.0650 c         1 MOL      0.825536
    115 N11        -4.0690    2.6410   -2.7780 n         1 MOL     -0.727148
    116 O18        -4.2870    0.6780   -1.9560 o         1 MOL     -0.776951
    117 H50        -1.2480    1.6470    1.3600 hn        1 MOL      0.297921
    118 H51        -2.6490    3.7100   -0.2730 h1        1 MOL     -0.034982
    119 H52        -1.8900    0.8950   -1.0100 hc        1 MOL      0.115366
    120 H53        -1.5040    2.3670   -1.8410 hc        1 MOL      0.115366
    121 H54        -3.5660    3.5260   -2.8170 hn        1 MOL      0.281453
    122 H55        -5.0190    2.5620   -3.0900 hn        1 MOL      0.281453
    123 N12        -5.0530    2.8240    0.1880 n         1 MOL     -0.211958
    124 C39        -6.3600    2.5590    0.7290 c3        1 MOL      0.093605
    125 C40        -6.6980    0.9960    0.9070 c         1 MOL      0.278399
    126 O19        -7.4160    0.7160    1.8720 o         1 MOL     -0.493398
    127 C41        -7.3640    3.4500   -0.0960 c3        1 MOL     -0.053017
    128 C42        -7.2960    3.4210   -1.6170 ca        1 MOL      0.160553
    129 C43        -7.0660    4.5640   -2.4070 ca        1 MOL     -0.275087
    130 C44        -7.4460    2.1950   -2.3330 ca        1 MOL     -0.275087
    131 C45        -6.5820    4.3490   -3.7230 ca        1 MOL     -0.103728
    132 C46        -7.2320    2.0740   -3.6760 ca        1 MOL     -0.103728
    133 C47        -6.7720    3.1410   -4.4100 ca        1 MOL      0.229045
    134 O20        -6.5750    3.0040   -5.7100 oh        1 MOL     -0.411249
    135 H56        -4.9940    3.5150   -0.5460 hn        1 MOL      0.140003
    136 H57        -6.4880    2.9440    1.7390 h1        1 MOL      0.033387
    137 H58        -7.1690    4.4980    0.1570 hc        1 MOL      0.023702
    138 H59        -8.3850    3.2710    0.2440 hc        1 MOL      0.023702
    139 H60        -6.9840    5.5340   -1.9500 ha        1 MOL      0.108586
    140 H61        -7.6360    1.3110   -1.7340 ha        1 MOL      0.108586
    141 H62        -6.2430    5.2120   -4.2780 ha        1 MOL      0.073687
    142 H63        -7.3150    1.0780   -4.0970 ha        1 MOL      0.073687
    143 H64        -6.3750    3.8610   -6.0780 ho        1 MOL      0.319548
    144 N13        -6.2550    0.1070    0.0170 n         1 MOL     -0.372128
    145 C48        -6.3290   -1.3300    0.0640 c3        1 MOL     -0.291523
    146 C49        -5.5530   -1.9940    1.2030 c         1 MOL      0.650073
    147 O21        -5.7970   -3.1370    1.5250 o         1 MOL     -0.570298
    148 C50        -5.7970   -2.0660   -1.2120 c3        1 MOL     -0.136815
    149 C51        -6.5830   -1.6120   -2.4520 c3        1 MOL     -0.149435
    150 C52        -8.0830   -1.8600   -2.4020 c         1 MOL      0.812430
    151 O22        -8.5300   -2.7320   -3.1570 o         1 MOL     -0.765052
    152 O23        -8.8830   -1.1280   -1.7250 o         1 MOL     -0.765052
    153 H65        -5.7540    0.4850   -0.7720 hn        1 MOL      0.988589
    154 H66        -7.3830   -1.5840    0.2320 h1        1 MOL      0.152398
    155 H67        -5.9570   -3.1350   -1.0380 hc        1 MOL      0.070785
    156 H68        -4.7570   -1.8100   -1.3850 hc        1 MOL      0.070785
    157 H69        -6.0790   -2.0970   -3.2960 hc        1 MOL      0.022164
    158 H70        -6.4170   -0.5350   -2.4570 hc        1 MOL      0.022164
    159 N14        -4.5390   -1.2690    1.7270 n         1 MOL     -0.224553
    160 C53        -3.5910   -1.5830    2.8050 c3        1 MOL     -0.030188
    161 C54        -4.0560   -0.9520    4.1630 c         1 MOL      0.449622
    162 O24        -4.1190   -1.5780    5.2460 o         1 MOL     -0.576483
    163 C55        -2.2040   -1.0940    2.4040 c3        1 MOL      0.160981
    164 C56        -1.6400   -1.6730    1.1380 c3        1 MOL      0.058480
    165 C57        -0.3740   -1.0550    0.7030 c         1 MOL      0.852275
    166 O25         0.3190   -1.7100   -0.1560 o         1 MOL     -0.835413
    167 O26         0.0410    0.0310    1.1050 o         1 MOL     -0.835413
    168 H71        -4.4140   -0.3600    1.3070 hn        1 MOL     -0.138332
    169 H72        -3.5260   -2.6450    3.0270 h1        1 MOL      0.060425
    170 H73        -1.5060   -1.3230    3.2210 hc        1 MOL     -0.027469
    171 H74        -2.2250   -0.0080    2.4330 hc        1 MOL     -0.027469
    172 H75        -2.3240   -1.4450    0.3260 hc        1 MOL     -0.032067
    173 H76        -1.5900   -2.7440    1.2980 hc        1 MOL     -0.032067
    174 N15        -4.3100    0.3590    4.1960 n         1 MOL     -0.077151
    175 C58        -4.7370    1.1220    5.3580 c3        1 MOL     -0.190003
    176 H77        -5.0470    0.4380    6.1470 h1        1 MOL      0.070841
    177 H78        -3.9090    1.7340    5.7150 h1        1 MOL      0.070841
    178 H79        -5.5730    1.7650    5.0850 h1        1 MOL      0.070841
    179 H80        -4.1600    0.9270    3.3740 hn        1 MOL      0.086200
    180 Ca1         2.5070   -0.3030    0.2740 Ca        1 MOL      1.775476
    181 O27         2.3800   -0.7270    2.8240 oh        1 MOL     -0.904305
    182 O28         1.3370    1.4470   -1.4990 oh        1 MOL     -0.904305
    183 H81         2.7610   -0.0840    3.4190 ho        1 MOL      0.429216
    184 H82         0.9660    0.7410   -2.0350 ho        1 MOL      0.429216
    185 H83         1.9540   -1.3670    3.3950 ho        1 MOL      0.429216
    186 H84         2.0170    1.8440   -2.0540 ho        1 MOL      0.429216
    187 O29         4.9200   -0.0810    1.8850 oh        1 MOL     -0.904305
    188 H85         5.7320   -0.5890    1.7910 ho        1 MOL      0.429216
    189 H86         4.8790    0.1470    2.8120 ho        1 MOL      0.429216
@<TRIPOS>BOND
     1    1    2 1   
     2    1    4 1   
     3    1    5 1   
     4    1    6 1   
     5    2    3 2   
     6    2    7 1   
     7    7    8 1   
     8    7   15 1   
     9    8    9 1   
    10    8   11 1   
    11    8   16 1   
    12    9   10 2   
    13    9   19 1   
    14   11   12 1   
    15   11   17 1   
    16   11   18 1   
    17   12   13 1   
    18   12   14 1   
    19   19   20 1   
    20   19   27 1   
    21   20   21 1   
    22   20   23 1   
    23   20   28 1   
    24   21   22 2   
    25   21   38 1   
    26   23   24 1   
    27   23   25 1   
    28   23   29 1   
    29   24   26 1   
    30   24   30 1   
    31   24   31 1   
    32   25   32 1   
    33   25   33 1   
    34   25   34 1   
    35   26   35 1   
    36   26   36 1   
    37   26   37 1   
    38   38   39 1   
    39   38   46 1   
    40   39   40 1   
    41   39   42 1   
    42   39   47 1   
    43   40   41 2   
    44   40   50 1   
    45   42   43 1   
    46   42   48 1   
    47   42   49 1   
    48   43   44 1   
    49   43   45 1   
    50   50   51 1   
    51   50   54 1   
    52   51   52 1   
    53   51   55 1   
    54   51   56 1   
    55   52   53 2   
    56   52   57 1   
    57   57   58 1   
    58   57   65 1   
    59   58   59 1   
    60   58   61 1   
    61   58   66 1   
    62   59   60 2   
    63   59   69 1   
    64   61   62 1   
    65   61   67 1   
    66   61   68 1   
    67   62   63 1   
    68   62   64 1   
    69   69   70 1   
    70   69   73 1   
    71   70   71 1   
    72   70   74 1   
    73   70   75 1   
    74   71   72 2   
    75   71   76 1   
    76   76   77 1   
    77   76   85 1   
    78   77   78 1   
    79   77   80 1   
    80   77   86 1   
    81   78   79 2   
    82   78   93 1   
    83   80   81 1   
    84   80   87 1   
    85   80   88 1   
    86   81   82 1   
    87   81   89 1   
    88   81   90 1   
    89   82   83 1   
    90   82   84 2   
    91   83   91 1   
    92   83   92 1   
    93   93   94 1   
    94   93  100 1   
    95   94   95 1   
    96   94   97 1   
    97   94  101 1   
    98   95   96 2   
    99   95  109 1   
   100   97   98 1   
   101   97   99 1   
   102   97  102 1   
   103   98  103 1   
   104   98  104 1   
   105   98  105 1   
   106   99  106 1   
   107   99  107 1   
   108   99  108 1   
   109  109  110 1   
   110  109  117 1   
   111  110  111 1   
   112  110  113 1   
   113  110  118 1   
   114  111  112 2   
   115  111  123 1   
   116  113  114 1   
   117  113  119 1   
   118  113  120 1   
   119  114  115 1   
   120  114  116 2   
   121  115  121 1   
   122  115  122 1   
   123  123  124 1   
   124  123  135 1   
   125  124  125 1   
   126  124  127 1   
   127  124  136 1   
   128  125  126 2   
   129  125  144 1   
   130  127  128 1   
   131  127  137 1   
   132  127  138 1   
   133  128  129 ar  
   134  128  130 ar  
   135  129  131 ar  
   136  129  139 1   
   137  130  132 ar  
   138  130  140 1   
   139  131  133 ar  
   140  131  141 1   
   141  132  133 ar  
   142  132  142 1   
   143  133  134 1   
   144  134  143 1   
   145  144  145 1   
   146  144  153 1   
   147  145  146 1   
   148  145  148 1   
   149  145  154 1   
   150  146  147 2   
   151  146  159 1   
   152  148  149 1   
   153  148  155 1   
   154  148  156 1   
   155  149  150 1   
   156  149  157 1   
   157  149  158 1   
   158  150  151 1   
   159  150  152 1   
   160  159  160 1   
   161  159  168 1   
   162  160  161 1   
   163  160  163 1   
   164  160  169 1   
   165  161  162 2   
   166  161  174 1   
   167  163  164 1   
   168  163  170 1   
   169  163  171 1   
   170  164  165 1   
   171  164  172 1   
   172  164  173 1   
   173  165  166 1   
   174  165  167 1   
   175  174  175 1   
   176  174  179 1   
   177  175  176 1   
   178  175  177 1   
   179  175  178 1   
   180  181  183 1   
   181  181  185 1   
   182  182  184 1   
   183  182  186 1   
   184  187  188 1   
   185  187  189 1   
@<TRIPOS>SUBSTRUCTURE
     1 MOL         1 TEMP              0 ****  ****    0 ROOT
