@<TRIPOS>MOLECULE
MOL
  189   185     1     0     0
SMALL
resp


@<TRIPOS>ATOM
      1 C1         -0.4520    1.7990    6.3610 c3        1 MOL     -0.311453
      2 C2         -0.6580    1.8980    4.8440 c         1 MOL      0.654772
      3 O1          0.2640    2.2820    4.1070 o         1 MOL     -0.602190
      4 H1         -0.0870    0.8030    6.6130 hc        1 MOL      0.079209
      5 H2          0.2770    2.5440    6.6790 hc        1 MOL      0.079209
      6 H3         -1.4000    1.9770    6.8690 hc        1 MOL      0.079209
      7 N1         -1.8760    1.6030    4.3960 n         1 MOL     -0.542948
      8 C3         -2.2240    1.6320    3.0080 c3        1 MOL      0.192032
      9 C4         -2.2840    3.0270    2.3910 c         1 MOL      0.193294
     10 O2         -3.0480    3.8520    2.8140 o         1 MOL     -0.523012
     11 C5         -3.4430    0.7780    2.8060 c3        1 MOL     -0.273588
     12 C6         -3.9140    0.8160    1.3640 c         1 MOL      0.993165
     13 O3         -3.0670    1.0620    0.4500 o         1 MOL     -0.717311
     14 O4         -5.1380    0.6110    1.2250 o         1 MOL     -0.717311
     15 H4         -2.5920    1.5210    5.1070 hn        1 MOL      0.334753
     16 H5         -1.3450    1.2120    2.5100 h1        1 MOL      0.065160
     17 H6         -4.2730    1.1700    3.4050 hc        1 MOL      0.048564
     18 H7         -3.2400   -0.2480    3.1250 hc        1 MOL      0.048564
     19 N2         -1.6660    3.3190    1.2810 n         1 MOL     -0.002132
     20 C7         -1.5150    4.7170    0.7840 c3        1 MOL     -0.007114
     21 C8         -2.4990    5.0510   -0.3540 c         1 MOL      0.519584
     22 O5         -2.9150    6.2100   -0.4820 o         1 MOL     -0.584926
     23 C9         -0.1080    5.0330    0.3520 c3        1 MOL     -0.028496
     24 C10         0.8940    4.8070    1.5020 c3        1 MOL      0.065608
     25 C11         0.8980    5.8470    2.6700 c3        1 MOL     -0.092661
     26 C12         0.3150    5.2860    3.9780 c3        1 MOL      0.205682
     27 N3          0.1070    6.2470    5.0540 n4        1 MOL     -0.545686
     28 H8         -1.2180    2.5930    0.7450 hn        1 MOL      0.125297
     29 H9         -1.7540    5.4360    1.5710 h1        1 MOL      0.041149
     30 H10        -0.0100    6.0790    0.0740 hc        1 MOL      0.011554
     31 H11         0.0800    4.4220   -0.5260 hc        1 MOL      0.011554
     32 H12         1.8670    4.9030    1.0330 hc        1 MOL      0.027970
     33 H13         0.8750    3.7760    1.8470 hc        1 MOL      0.027970
     34 H14         0.4360    6.8140    2.4620 hc        1 MOL      0.022602
     35 H15         1.9560    6.0190    2.8440 hc        1 MOL      0.022602
     36 H16         0.8090    4.4100    4.3950 hx        1 MOL      0.061124
     37 H17        -0.7120    5.0090    3.7490 hx        1 MOL      0.061124
     38 H18        -0.2350    5.8200    5.9060 hn        1 MOL      0.357593
     39 H19         1.0070    6.5850    5.3580 hn        1 MOL      0.357593
     40 H20        -0.4940    6.9840    4.7300 hn        1 MOL      0.357593
     41 N4         -2.9250    4.0680   -1.2070 n         1 MOL     -0.322742
     42 C13        -3.8940    4.1880   -2.3230 c3        1 MOL      0.012655
     43 C14        -5.2460    3.4160   -2.1890 c         1 MOL      0.382115
     44 O6         -6.0270    3.6310   -3.0680 o         1 MOL     -0.472719
     45 C15        -3.2090    3.7840   -3.6110 c3        1 MOL     -0.119951
     46 C16        -2.6330    2.3680   -3.6730 c         1 MOL      0.814197
     47 O7         -1.8520    2.0750   -4.6610 o         1 MOL     -0.746390
     48 O8         -2.8760    1.5890   -2.7230 o         1 MOL     -0.746390
     49 H21        -2.4940    3.1870   -0.9760 hn        1 MOL      0.200161
     50 H22        -4.1310    5.2350   -2.5630 h1        1 MOL      0.112880
     51 H23        -2.2920    4.3690   -3.6620 hc        1 MOL      0.024748
     52 H24        -3.7830    4.1030   -4.4860 hc        1 MOL      0.024748
     53 N5         -5.5620    2.5570   -1.1250 n         1 MOL     -0.124154
     54 C17        -6.9290    2.2040   -0.8360 c3        1 MOL     -0.369842
     55 C18        -7.3470    0.9860   -1.5310 c         1 MOL      0.565701
     56 O9         -8.5510    0.8650   -1.9300 o         1 MOL     -0.596275
     57 H25        -4.8220    2.2060   -0.5460 hn        1 MOL      0.120161
     58 H26        -7.5990    2.8950   -1.3560 h1        1 MOL      0.155723
     59 H27        -7.1330    2.0540    0.2250 h1        1 MOL      0.155723
     60 N6         -6.4770   -0.0140   -1.6470 n         1 MOL     -0.162209
     61 C19        -6.9010   -1.3640   -2.1640 c3        1 MOL     -0.102837
     62 C20        -7.0020   -2.4660   -1.0420 c         1 MOL      0.404828
     63 O10        -7.3340   -3.5940   -1.3920 o         1 MOL     -0.506105
     64 C21        -5.8580   -1.9590   -3.2050 c3        1 MOL     -0.114247
     65 C22        -4.3820   -1.7720   -2.7180 c         1 MOL      0.729693
     66 O11        -4.1580   -1.6860   -1.4870 o         1 MOL     -0.709852
     67 O12        -3.4540   -1.5630   -3.5140 o         1 MOL     -0.709852
     68 H28        -5.5250   -0.0160   -1.2960 hn        1 MOL      0.099507
     69 H29        -7.8360   -1.1220   -2.6580 h1        1 MOL      0.134243
     70 H30        -5.9560   -1.4800   -4.1870 hc        1 MOL      0.042325
     71 H31        -5.9870   -3.0150   -3.4430 hc        1 MOL      0.042325
     72 N7         -6.6160   -2.1860    0.2620 n         1 MOL     -0.274404
     73 C23        -6.7900   -3.1360    1.3380 c3        1 MOL     -0.114724
     74 C24        -5.4940   -4.0520    1.4470 c         1 MOL      0.382424
     75 O13        -5.6350   -5.1230    2.0510 o         1 MOL     -0.548163
     76 H32        -6.1600   -1.2840    0.3240 hn        1 MOL      0.223293
     77 H33        -7.5840   -3.8130    1.0140 h1        1 MOL      0.111537
     78 H34        -7.1560   -2.6150    2.2310 h1        1 MOL      0.111537
     79 N8         -4.3790   -3.6860    0.8180 n         1 MOL     -0.021757
     80 C25        -3.0830   -4.3940    0.8800 c3        1 MOL     -0.390289
     81 C26        -1.8440   -3.4740    0.9240 c         1 MOL      0.927130
     82 O14        -2.0430   -2.2700    0.5880 o         1 MOL     -0.825474
     83 C27        -3.0190   -5.5470   -0.1550 c3        1 MOL      0.349628
     84 C28        -4.1640   -6.5160   -0.3140 c3        1 MOL     -0.356076
     85 O15        -2.8070   -4.9120   -1.3980 oh        1 MOL     -0.634703
     86 H35        -4.3800   -2.7380    0.4630 hn        1 MOL      0.192645
     87 H36        -3.0400   -4.8540    1.8710 h1        1 MOL      0.104854
     88 H37        -2.1670   -6.2070   -0.0330 h1        1 MOL      0.012841
     89 H38        -3.4110   -5.2920   -2.0350 ho        1 MOL      0.416047
     90 H39        -5.1140   -6.0110   -0.5210 hc        1 MOL      0.109216
     91 H40        -3.9000   -7.1780   -1.1380 hc        1 MOL      0.109216
     92 H41        -4.1490   -7.1840    0.5430 hc        1 MOL      0.109216
     93 N9         -0.7240   -3.9830    1.4050 n         1 MOL     -0.583910
     94 C29         0.4410   -3.0680    1.6720 c3        1 MOL     -0.035306
     95 C30         1.6900   -3.6370    0.9340 c         1 MOL      0.557489
     96 O16         2.1720   -4.7430    1.2270 o         1 MOL     -0.574884
     97 C31         0.7700   -2.9410    3.2110 c3        1 MOL      0.317095
     98 C32        -0.3850   -2.6760    4.1870 c3        1 MOL      0.096182
     99 C33         1.8140   -1.7430    3.3210 c3        1 MOL     -0.611695
    100 C34        -0.0170   -2.9140    5.6110 c3        1 MOL     -0.122456
    101 H42        -0.7630   -4.8990    1.8450 hn        1 MOL      0.299983
    102 H43         0.1080   -2.1110    1.2910 h1        1 MOL      0.128745
    103 H44         1.3090   -3.7980    3.6050 hc        1 MOL     -0.044800
    104 H45        -1.1710   -3.3890    3.9230 hc        1 MOL     -0.030307
    105 H46        -0.6790   -1.6380    4.0090 hc        1 MOL     -0.030307
    106 H47         2.6820   -1.8410    2.6650 hc        1 MOL      0.144042
    107 H48         1.1970   -0.9340    2.9440 hc        1 MOL      0.144042
    108 H49         2.1390   -1.5820    4.3560 hc        1 MOL      0.144042
    109 H50         0.8130   -2.2930    5.9400 hc        1 MOL      0.027807
    110 H51        -0.8560   -2.7370    6.2750 hc        1 MOL      0.027807
    111 H52         0.3510   -3.9380    5.6850 hc        1 MOL      0.027807
    112 N10         2.1580   -2.8680    0.0060 n         1 MOL     -0.369303
    113 C35         3.3850   -3.2870   -0.7220 c3        1 MOL     -0.064689
    114 C36         4.6380   -2.6040   -0.0770 c         1 MOL      0.263052
    115 O17         4.5350   -1.7140    0.7360 o         1 MOL     -0.201691
    116 C37         3.0900   -3.2000   -2.2360 c3        1 MOL      0.362041
    117 C38         3.1480   -1.8410   -2.7670 c3        1 MOL     -0.099289
    118 O18         4.0650   -3.8260   -2.9660 oh        1 MOL     -0.679650
    119 H53         1.6880   -2.0160   -0.2760 hn        1 MOL      0.324991
    120 H54         3.5420   -4.3580   -0.5980 h1        1 MOL      0.108289
    121 H55         2.2020   -3.7840   -2.4780 h1        1 MOL      0.042338
    122 H56         3.6570   -4.1440   -3.7810 ho        1 MOL      0.413667
    123 H57         4.1690   -1.5040   -2.9140 hc        1 MOL      0.007236
    124 H58         2.6520   -1.7840   -3.7350 hc        1 MOL      0.007236
    125 H59         2.6270   -1.1910   -2.0580 hc        1 MOL      0.007236
    126 N11         5.8230   -3.1010   -0.4270 n         1 MOL     -0.132545
    127 C39         7.1120   -2.6980    0.1020 c3        1 MOL     -0.144276
    128 C40         7.3540   -1.1600    0.0790 c         1 MOL      0.383169
    129 O19         7.9110   -0.6090    0.9990 o         1 MOL     -0.469662
    130 C41         8.2590   -3.3780   -0.6420 c3        1 MOL      0.538070
    131 C42         9.4210   -3.8470    0.2920 c3        1 MOL     -0.362130
    132 O20         7.9300   -4.5800   -1.2800 oh        1 MOL     -0.662328
    133 H60         5.8620   -3.7090   -1.2390 hn        1 MOL      0.185778
    134 H61         7.0540   -2.9780    1.1530 h1        1 MOL      0.101199
    135 H62         8.6570   -2.7470   -1.4410 h1        1 MOL     -0.066299
    136 H63         8.5920   -4.8870   -1.9050 ho        1 MOL      0.410602
    137 H64         9.8510   -2.9420    0.7290 hc        1 MOL      0.090601
    138 H65         9.0740   -4.5550    1.0390 hc        1 MOL      0.090601
    139 H66        10.2530   -4.3260   -0.2380 hc        1 MOL      0.090601
    140 N12         6.9190   -0.5460   -1.0200 n         1 MOL     -0.260240
    141 C43         6.9630    0.9290   -1.2180 c3        1 MOL     -0.157608
    142 C44         6.1150    1.7180   -0.2390 c         1 MOL      0.493962
    143 O21         6.5340    2.8060    0.1370 o         1 MOL     -0.531198
    144 C45         6.6150    1.2650   -2.6570 c3        1 MOL     -0.040045
    145 C46         7.0120    2.6360   -3.1630 c3        1 MOL     -0.101695
    146 C47         6.4620    2.7430   -4.5810 c3        1 MOL     -0.060339
    147 C48         7.0600    3.9850   -5.2980 c3        1 MOL      0.164892
    148 N13         6.6580    3.8670   -6.7090 n4        1 MOL     -0.371072
    149 H67         6.5610   -1.1800   -1.7190 hn        1 MOL      0.204671
    150 H68         7.9840    1.2700   -1.0340 h1        1 MOL      0.124869
    151 H69         5.5290    1.1780   -2.7180 hc        1 MOL      0.035349
    152 H70         7.1240    0.4810   -3.2230 hc        1 MOL      0.035349
    153 H71         8.0970    2.7530   -3.1760 hc        1 MOL      0.075367
    154 H72         6.4450    3.3030   -2.5140 hc        1 MOL      0.075367
    155 H73         5.3760    2.8160   -4.5120 hc        1 MOL      0.042006
    156 H74         6.8190    1.8830   -5.1340 hc        1 MOL      0.042006
    157 H75         8.1440    4.0210   -5.2080 hx        1 MOL      0.053204
    158 H76         6.7540    4.8700   -4.7420 hx        1 MOL      0.053204
    159 H77         7.1100    3.0920   -7.1810 hn        1 MOL      0.317596
    160 H78         5.6780    3.6010   -6.7270 hn        1 MOL      0.317596
    161 H79         6.7350    4.7700   -7.1550 hn        1 MOL      0.317596
    162 N14         4.9800    1.1000    0.1980 n         1 MOL     -0.004663
    163 C49         4.1070    1.7280    1.1590 c3        1 MOL     -0.302819
    164 C50         4.6310    1.4450    2.5850 c         1 MOL      0.557085
    165 O22         4.6310    2.3890    3.3960 o         1 MOL     -0.551962
    166 C51         2.6890    1.1350    1.0350 c3        1 MOL     -0.282212
    167 C52         1.9980    1.4360   -0.2720 c3        1 MOL      0.109527
    168 C53         0.6270    0.8270   -0.4040 c         1 MOL      0.537236
    169 O23         0.4430   -0.4040   -0.4760 o         1 MOL     -0.674055
    170 O24        -0.3390    1.6250   -0.4650 o         1 MOL     -0.674055
    171 H80         4.8190    0.1170    0.0770 hn        1 MOL      0.112149
    172 H81         3.9620    2.7940    0.9880 h1        1 MOL      0.142042
    173 H82         2.0150    1.5300    1.7970 hc        1 MOL      0.110786
    174 H83         2.7000    0.0490    1.0790 hc        1 MOL      0.110786
    175 H84         2.6130    1.1230   -1.1170 hc        1 MOL     -0.018316
    176 H85         1.8920    2.5130   -0.3570 hc        1 MOL     -0.018316
    177 N15         5.1300    0.2370    2.9390 n         1 MOL     -0.170960
    178 C54         5.8420   -0.0900    4.1650 c3        1 MOL     -0.300257
    179 H86         6.9010    0.1400    4.0420 h1        1 MOL      0.116966
    180 H87         5.4370    0.4980    4.9880 h1        1 MOL      0.116966
    181 H88         5.7250   -1.1510    4.3820 h1        1 MOL      0.116966
    182 H89         5.1230   -0.4880    2.2220 hn        1 MOL      0.144665
    183 Ca1        -1.8920   -0.2630   -1.3410 Ca        1 MOL      1.762416
    184 O25        -0.5480    0.0740   -3.7040 oh        1 MOL     -0.883922
    185 H90        -0.0620   -0.4140   -4.3720 ho        1 MOL      0.408236
    186 H91        -1.0420    0.7320   -4.1910 ho        1 MOL      0.408236
    187 O26        -0.8750   -3.0340   -2.1170 oh        1 MOL     -0.883922
    188 H92        -1.1630   -3.2890   -2.9860 ho        1 MOL      0.408236
    189 H93        -1.4920   -3.4600   -1.5210 ho        1 MOL      0.408236
@<TRIPOS>BOND
     1    1    2 1   
     2    1    4 1   
     3    1    5 1   
     4    1    6 1   
     5    2    3 2   
     6    2    7 1   
     7    7    8 1   
     8    7   15 1   
     9    8    9 1   
    10    8   11 1   
    11    8   16 1   
    12    9   10 2   
    13    9   19 1   
    14   11   12 1   
    15   11   17 1   
    16   11   18 1   
    17   12   13 1   
    18   12   14 1   
    19   19   20 1   
    20   19   28 1   
    21   20   21 1   
    22   20   23 1   
    23   20   29 1   
    24   21   22 2   
    25   21   41 1   
    26   23   24 1   
    27   23   30 1   
    28   23   31 1   
    29   24   25 1   
    30   24   32 1   
    31   24   33 1   
    32   25   26 1   
    33   25   34 1   
    34   25   35 1   
    35   26   27 1   
    36   26   36 1   
    37   26   37 1   
    38   27   38 1   
    39   27   39 1   
    40   27   40 1   
    41   41   42 1   
    42   41   49 1   
    43   42   43 1   
    44   42   45 1   
    45   42   50 1   
    46   43   44 2   
    47   43   53 1   
    48   45   46 1   
    49   45   51 1   
    50   45   52 1   
    51   46   47 1   
    52   46   48 1   
    53   53   54 1   
    54   53   57 1   
    55   54   55 1   
    56   54   58 1   
    57   54   59 1   
    58   55   56 2   
    59   55   60 1   
    60   60   61 1   
    61   60   68 1   
    62   61   62 1   
    63   61   64 1   
    64   61   69 1   
    65   62   63 2   
    66   62   72 1   
    67   64   65 1   
    68   64   70 1   
    69   64   71 1   
    70   65   66 1   
    71   65   67 1   
    72   72   73 1   
    73   72   76 1   
    74   73   74 1   
    75   73   77 1   
    76   73   78 1   
    77   74   75 2   
    78   74   79 1   
    79   79   80 1   
    80   79   86 1   
    81   80   81 1   
    82   80   83 1   
    83   80   87 1   
    84   81   82 2   
    85   81   93 1   
    86   83   84 1   
    87   83   85 1   
    88   83   88 1   
    89   84   90 1   
    90   84   91 1   
    91   84   92 1   
    92   85   89 1   
    93   93   94 1   
    94   93  101 1   
    95   94   95 1   
    96   94   97 1   
    97   94  102 1   
    98   95   96 2   
    99   95  112 1   
   100   97   98 1   
   101   97   99 1   
   102   97  103 1   
   103   98  100 1   
   104   98  104 1   
   105   98  105 1   
   106   99  106 1   
   107   99  107 1   
   108   99  108 1   
   109  100  109 1   
   110  100  110 1   
   111  100  111 1   
   112  112  113 1   
   113  112  119 1   
   114  113  114 1   
   115  113  116 1   
   116  113  120 1   
   117  114  115 2   
   118  114  126 1   
   119  116  117 1   
   120  116  118 1   
   121  116  121 1   
   122  117  123 1   
   123  117  124 1   
   124  117  125 1   
   125  118  122 1   
   126  126  127 1   
   127  126  133 1   
   128  127  128 1   
   129  127  130 1   
   130  127  134 1   
   131  128  129 2   
   132  128  140 1   
   133  130  131 1   
   134  130  132 1   
   135  130  135 1   
   136  131  137 1   
   137  131  138 1   
   138  131  139 1   
   139  132  136 1   
   140  140  141 1   
   141  140  149 1   
   142  141  142 1   
   143  141  144 1   
   144  141  150 1   
   145  142  143 2   
   146  142  162 1   
   147  144  145 1   
   148  144  151 1   
   149  144  152 1   
   150  145  146 1   
   151  145  153 1   
   152  145  154 1   
   153  146  147 1   
   154  146  155 1   
   155  146  156 1   
   156  147  148 1   
   157  147  157 1   
   158  147  158 1   
   159  148  159 1   
   160  148  160 1   
   161  148  161 1   
   162  162  163 1   
   163  162  171 1   
   164  163  164 1   
   165  163  166 1   
   166  163  172 1   
   167  164  165 2   
   168  164  177 1   
   169  166  167 1   
   170  166  173 1   
   171  166  174 1   
   172  167  168 1   
   173  167  175 1   
   174  167  176 1   
   175  168  169 1   
   176  168  170 1   
   177  177  178 1   
   178  177  182 1   
   179  178  179 1   
   180  178  180 1   
   181  178  181 1   
   182  184  185 1   
   183  184  186 1   
   184  187  188 1   
   185  187  189 1   
@<TRIPOS>SUBSTRUCTURE
     1 MOL         1 TEMP              0 ****  ****    0 ROOT
