@<TRIPOS>MOLECULE
MOL
  179   176     1     0     0
SMALL
resp


@<TRIPOS>ATOM
      1 C1         -2.0250   -2.0080    5.9460 c3        1 MOL     -0.135622
      2 C2         -1.4460   -1.9040    4.4940 c         1 MOL      0.635689
      3 O1         -2.2200   -1.7950    3.5300 o         1 MOL     -0.597292
      4 H1         -2.0460   -3.0540    6.2540 hc        1 MOL      0.041069
      5 H2         -1.3950   -1.4410    6.6300 hc        1 MOL      0.041069
      6 H3         -3.0380   -1.6040    5.9630 hc        1 MOL      0.041069
      7 N1         -0.1370   -1.9480    4.2720 n         1 MOL     -0.462298
      8 C3          0.4560   -1.8310    2.9230 c3        1 MOL     -0.106370
      9 C4          0.3330   -3.2460    2.3460 c         1 MOL      0.480978
     10 O2          1.2260   -4.0640    2.7380 o         1 MOL     -0.562861
     11 C5          1.9570   -1.4100    2.9660 c3        1 MOL     -0.113609
     12 C6          2.6720   -1.3800    1.6400 c         1 MOL      0.969025
     13 O3          3.8280   -0.9620    1.6100 o         1 MOL     -0.862682
     14 O4          1.9750   -1.6210    0.6220 o         1 MOL     -0.862682
     15 H4          0.5100   -1.9490    5.0420 hn        1 MOL      0.311873
     16 H5         -0.0930   -1.2260    2.1970 h1        1 MOL      0.070242
     17 H6          2.5320   -2.1130    3.5710 hc        1 MOL      0.041709
     18 H7          2.1110   -0.4520    3.4660 hc        1 MOL      0.041709
     19 N2         -0.6060   -3.5210    1.4750 n         1 MOL     -0.016183
     20 C7         -1.0960   -4.8550    1.1230 c3        1 MOL     -0.609590
     21 C8         -0.0390   -5.6820    0.3570 c         1 MOL      0.749953
     22 O5         -0.0740   -6.8830    0.1750 o         1 MOL     -0.573638
     23 C9         -2.4110   -4.5560    0.3820 c3        1 MOL      0.152157
     24 C10        -3.2800   -5.8370    0.0860 c3        1 MOL     -0.038314
     25 C11        -4.6540   -5.4550   -0.4260 c3        1 MOL     -0.175272
     26 C12        -4.6670   -5.6280   -1.9480 c3        1 MOL      0.154692
     27 N3         -6.0760   -5.4100   -2.3480 n4        1 MOL     -0.468016
     28 H8         -1.0910   -2.7220    1.0850 hn        1 MOL      0.283966
     29 H9         -1.3140   -5.2920    2.0980 h1        1 MOL      0.198054
     30 H10        -2.2560   -3.9930   -0.5480 hc        1 MOL      0.062072
     31 H11        -3.0020   -3.9440    1.0650 hc        1 MOL      0.062072
     32 H12        -3.3180   -6.3730    1.0320 hc        1 MOL      0.043054
     33 H13        -2.7980   -6.4760   -0.6490 hc        1 MOL      0.043054
     34 H14        -4.8420   -4.4550   -0.0470 hc        1 MOL      0.078865
     35 H15        -5.3170   -6.1860    0.0340 hc        1 MOL      0.078865
     36 H16        -4.4400   -6.6600   -2.2100 hx        1 MOL      0.066367
     37 H17        -3.9970   -4.9610   -2.4900 hx        1 MOL      0.066367
     38 H18        -6.6670   -6.1490   -1.9980 hn        1 MOL      0.348137
     39 H19        -6.4550   -4.4940   -2.1330 hn        1 MOL      0.348137
     40 H20        -6.1610   -5.3960   -3.3520 hn        1 MOL      0.348137
     41 N4          0.9720   -4.9620   -0.1650 n         1 MOL     -0.483760
     42 C13         1.9660   -5.5050   -1.0970 c3        1 MOL      0.023781
     43 C14         3.4130   -4.9790   -0.8210 c         1 MOL      0.387524
     44 O6          4.3160   -5.1690   -1.6670 o         1 MOL     -0.472571
     45 C15         1.5380   -5.3370   -2.6100 c3        1 MOL     -0.143518
     46 C16         1.2430   -3.8480   -2.9730 c         1 MOL      0.830082
     47 O7          1.8230   -3.0070   -2.2600 o         1 MOL     -0.754898
     48 O8          0.5220   -3.6050   -3.9890 o         1 MOL     -0.754898
     49 H21         0.8380   -3.9620   -0.1710 hn        1 MOL      0.207133
     50 H22         1.9270   -6.5800   -0.9690 h1        1 MOL      0.112686
     51 H23         0.6480   -5.9490   -2.7850 hc        1 MOL      0.033531
     52 H24         2.4100   -5.6590   -3.1620 hc        1 MOL      0.033531
     53 N5          3.6590   -4.3550    0.4080 n         1 MOL     -0.163786
     54 C17         4.9740   -4.2790    0.8370 c3        1 MOL     -0.319890
     55 C18         5.9810   -3.3760    0.1030 c         1 MOL      0.527747
     56 O9          7.1440   -3.5880    0.2240 o         1 MOL     -0.545443
     57 H25         2.9100   -4.1500    1.0600 hn        1 MOL      0.242470
     58 H26         5.4800   -5.2150    0.5830 h1        1 MOL      0.126614
     59 H27         4.8880   -4.1400    1.9150 h1        1 MOL      0.126614
     60 N6          5.4470   -2.4620   -0.7180 n         1 MOL     -0.167266
     61 C19         6.2400   -1.5320   -1.5650 c3        1 MOL     -0.110765
     62 C20         6.8240   -0.3770   -0.7260 c         1 MOL      0.456044
     63 O10         7.7160    0.2900   -1.2980 o         1 MOL     -0.544468
     64 C21         5.4140   -1.0240   -2.7900 c3        1 MOL     -0.252891
     65 C22         4.5580    0.1690   -2.5980 c         1 MOL      0.598644
     66 N7          4.8360    1.2670   -3.1920 n         1 MOL     -0.691118
     67 O11         3.6150    0.1460   -1.8330 o         1 MOL     -0.700218
     68 H28         4.4450   -2.4100   -0.7280 hn        1 MOL      0.215339
     69 H29         7.1000   -2.0810   -1.9480 h1        1 MOL      0.151041
     70 H30         4.7170   -1.7960   -3.1140 hc        1 MOL      0.114039
     71 H31         6.0040   -0.7400   -3.6580 hc        1 MOL      0.114039
     72 H32         5.6870    1.2850   -3.7420 hn        1 MOL      0.356519
     73 H33         4.2000    2.0580   -3.1720 hn        1 MOL      0.356519
     74 N8          6.4800   -0.1250    0.5350 n         1 MOL     -0.294682
     75 C23         6.9260    0.9950    1.3520 c3        1 MOL     -0.142535
     76 C24         5.8170    2.0870    1.4540 c         1 MOL      0.629356
     77 O12         6.0280    3.0620    2.0890 o         1 MOL     -0.551814
     78 H34         5.7200   -0.6530    0.9440 hn        1 MOL      0.318868
     79 H35         7.8640    1.4520    1.0300 h1        1 MOL      0.108928
     80 H36         7.1480    0.6520    2.3600 h1        1 MOL      0.108928
     81 N9          4.5490    1.8950    0.9470 n         1 MOL     -0.566470
     82 C25         3.4140    2.9100    1.0030 c3        1 MOL      0.292410
     83 C26         2.0300    2.3210    1.0650 c         1 MOL      0.277130
     84 O13         1.8270    1.4200    0.2890 o         1 MOL     -0.492652
     85 C27         3.4550    3.7990   -0.2250 c3        1 MOL      0.097075
     86 C28         4.6870    4.7060   -0.3630 ca        1 MOL      0.004324
     87 C29         5.6040    4.5120   -1.4120 ca        1 MOL     -0.235088
     88 C30         4.8500    5.7950    0.4750 ca        1 MOL     -0.235088
     89 C31         6.6210    5.4330   -1.7170 ca        1 MOL     -0.055114
     90 C32         5.8510    6.7760    0.2430 ca        1 MOL     -0.055114
     91 C33         6.6880    6.6140   -0.9080 ca        1 MOL      0.115691
     92 O14         7.6960    7.5800   -1.1890 oh        1 MOL     -0.473501
     93 H37         4.3460    1.0330    0.4660 hn        1 MOL      0.395642
     94 H38         3.5120    3.5490    1.8740 h1        1 MOL      0.018249
     95 H39         2.6510    4.5330   -0.1780 hc        1 MOL     -0.007798
     96 H40         3.3060    3.2260   -1.1390 hc        1 MOL     -0.007798
     97 H41         5.4390    3.6820   -2.0970 ha        1 MOL      0.129707
     98 H42         4.2050    5.9160    1.3380 ha        1 MOL      0.129707
     99 H43         7.2540    5.3680   -2.5900 ha        1 MOL      0.106535
    100 H44         5.9000    7.7070    0.7790 ha        1 MOL      0.106535
    101 H45         7.6070    8.3510   -0.6360 ho        1 MOL      0.363168
    102 N10         1.0260    2.9100    1.7550 n         1 MOL     -0.244963
    103 C34        -0.4100    2.6240    1.7830 c3        1 MOL     -0.116304
    104 C35        -1.0620    3.6060    0.8440 c         1 MOL      0.527397
    105 O15        -0.5530    4.7510    0.7670 o         1 MOL     -0.583451
    106 C36        -1.0150    2.6520    3.2540 c3        1 MOL     -0.037206
    107 C37        -0.0080    2.0600    4.2360 c3        1 MOL      0.363090
    108 C38        -2.1980    1.6920    3.2770 c3        1 MOL     -0.392255
    109 C39        -0.3270    2.3340    5.7270 c3        1 MOL     -0.264554
    110 H46         1.3650    3.7160    2.2500 hn        1 MOL      0.229559
    111 H47        -0.6530    1.6460    1.3620 h1        1 MOL      0.131239
    112 H48        -1.3600    3.6260    3.6320 hc        1 MOL      0.049027
    113 H49         1.0220    2.3490    4.0700 hc        1 MOL     -0.080254
    114 H50         0.0150    0.9710    4.1730 hc        1 MOL     -0.080254
    115 H51        -1.9380    0.6350    3.2450 hc        1 MOL      0.090842
    116 H52        -2.7970    1.9120    4.1570 hc        1 MOL      0.090842
    117 H53        -2.8560    1.8780    2.4330 hc        1 MOL      0.090842
    118 H54        -0.0600    3.3670    5.9650 hc        1 MOL      0.050833
    119 H55        -1.3990    2.2490    5.8960 hc        1 MOL      0.050833
    120 H56         0.2590    1.6950    6.3990 hc        1 MOL      0.050833
    121 N11        -2.0870    3.2000    0.1440 n         1 MOL     -0.292028
    122 C40        -2.8260    4.0140   -0.8190 c3        1 MOL     -0.148647
    123 C41        -4.3220    3.9150   -0.5880 c         1 MOL      0.585596
    124 O16        -4.7550    3.0010    0.1400 o         1 MOL     -0.546944
    125 C42        -2.4050    3.6730   -2.2300 c3        1 MOL      0.123302
    126 O17        -2.6210    2.3690   -2.5120 oh        1 MOL     -0.666036
    127 H57        -2.2290    2.1980    0.1970 hn        1 MOL      0.477163
    128 H58        -2.5280    5.0350   -0.5820 h1        1 MOL      0.063570
    129 H59        -1.3460    3.8880   -2.2870 h1        1 MOL      0.045884
    130 H60        -2.9240    4.3900   -2.8710 h1        1 MOL      0.045884
    131 H61        -2.0390    1.8200   -1.9900 ho        1 MOL      0.509780
    132 N12        -5.1030    4.8520   -1.1140 n         1 MOL     -0.391637
    133 C43        -6.5010    4.8180   -0.6580 c3        1 MOL      0.041068
    134 C44        -7.2980    3.4910   -1.0620 c         1 MOL      0.414519
    135 O18        -8.1650    3.0130   -0.2710 o         1 MOL     -0.496681
    136 C45        -7.0840    5.9680   -1.4870 c3        1 MOL     -0.411741
    137 H62        -4.7980    5.6530   -1.6460 hn        1 MOL      0.291078
    138 H63        -6.6610    5.0190    0.3990 h1        1 MOL      0.123848
    139 H64        -8.1070    6.1750   -1.1770 hc        1 MOL      0.127590
    140 H65        -6.6450    6.8960   -1.1470 hc        1 MOL      0.127590
    141 H66        -7.0080    5.7660   -2.5610 hc        1 MOL      0.127590
    142 N13        -6.8900    2.8140   -2.1290 n         1 MOL     -0.286380
    143 C46        -7.3490    1.5110   -2.5780 c3        1 MOL     -0.010446
    144 C47        -7.1320    0.4140   -1.5710 c         1 MOL      0.390330
    145 O19        -8.0610   -0.3440   -1.2730 o         1 MOL     -0.521389
    146 C48        -6.7740    1.1040   -3.9430 c3        1 MOL     -0.257217
    147 H67        -6.0930    3.1830   -2.6250 hn        1 MOL      0.263694
    148 H68        -8.4290    1.5920   -2.7200 h1        1 MOL      0.121191
    149 H69        -5.6960    1.0030   -3.8600 hc        1 MOL      0.082103
    150 H70        -7.1140    0.1310   -4.3030 hc        1 MOL      0.082103
    151 H71        -6.9620    1.7870   -4.7730 hc        1 MOL      0.082103
    152 N14        -6.0040    0.4650   -0.8120 n         1 MOL     -0.008900
    153 C49        -5.5050   -0.4980    0.1480 c3        1 MOL     -0.311399
    154 C50        -5.9960   -0.2350    1.5820 c         1 MOL      0.464299
    155 O20        -6.0660   -1.1590    2.3860 o         1 MOL     -0.555305
    156 C51        -3.9990   -0.3800    0.3450 c3        1 MOL      0.220099
    157 C52        -3.3020   -0.8000   -0.9450 c3        1 MOL     -0.212711
    158 C53        -1.8600   -0.4850   -0.7510 c         1 MOL      0.721411
    159 O21        -1.3790    0.6560   -0.8940 o         1 MOL     -0.799845
    160 O22        -1.1260   -1.4040   -0.3580 o         1 MOL     -0.799845
    161 H72        -5.4930    1.3330   -0.8580 hn        1 MOL      0.109286
    162 H73        -5.6360   -1.5450   -0.1190 h1        1 MOL      0.121997
    163 H74        -3.6580   -0.9540    1.2160 hc        1 MOL     -0.004663
    164 H75        -3.7980    0.6660    0.5620 hc        1 MOL     -0.004663
    165 H76        -3.6680   -0.1470   -1.7360 hc        1 MOL     -0.003780
    166 H77        -3.5440   -1.8450   -1.1470 hc        1 MOL     -0.003780
    167 N15        -6.4380    0.9770    1.8080 n         1 MOL     -0.020198
    168 C54        -7.1970    1.3710    2.9240 c3        1 MOL     -0.429165
    169 H78        -7.0900    0.6290    3.7160 h1        1 MOL      0.146353
    170 H79        -6.8440    2.3380    3.2810 h1        1 MOL      0.146353
    171 H80        -8.2460    1.4490    2.6400 h1        1 MOL      0.146353
    172 H81        -6.3340    1.6370    1.0520 hn        1 MOL      0.172804
    173 Ca1         1.1580   -0.6110   -1.4650 Ca        1 MOL      1.791181
    174 O23         0.8150    1.6560   -2.9150 oh        1 MOL     -0.868390
    175 H82         1.0280    2.5810   -2.8050 ho        1 MOL      0.415251
    176 H83         1.0750    1.4580   -3.8170 ho        1 MOL      0.415251
    177 O24        -0.5840   -1.3180   -3.4500 oh        1 MOL     -0.868390
    178 H84        -0.3930   -2.2120   -3.7380 ho        1 MOL      0.415251
    179 H85        -1.4530   -1.1340   -3.8230 ho        1 MOL      0.415251
@<TRIPOS>BOND
     1    1    2 1   
     2    1    4 1   
     3    1    5 1   
     4    1    6 1   
     5    2    3 2   
     6    2    7 1   
     7    7    8 1   
     8    7   15 1   
     9    8    9 1   
    10    8   11 1   
    11    8   16 1   
    12    9   10 2   
    13    9   19 1   
    14   11   12 1   
    15   11   17 1   
    16   11   18 1   
    17   12   13 1   
    18   12   14 1   
    19   19   20 1   
    20   19   28 1   
    21   20   21 1   
    22   20   23 1   
    23   20   29 1   
    24   21   22 2   
    25   21   41 1   
    26   23   24 1   
    27   23   30 1   
    28   23   31 1   
    29   24   25 1   
    30   24   32 1   
    31   24   33 1   
    32   25   26 1   
    33   25   34 1   
    34   25   35 1   
    35   26   27 1   
    36   26   36 1   
    37   26   37 1   
    38   27   38 1   
    39   27   39 1   
    40   27   40 1   
    41   41   42 1   
    42   41   49 1   
    43   42   43 1   
    44   42   45 1   
    45   42   50 1   
    46   43   44 2   
    47   43   53 1   
    48   45   46 1   
    49   45   51 1   
    50   45   52 1   
    51   46   47 1   
    52   46   48 1   
    53   53   54 1   
    54   53   57 1   
    55   54   55 1   
    56   54   58 1   
    57   54   59 1   
    58   55   56 2   
    59   55   60 1   
    60   60   61 1   
    61   60   68 1   
    62   61   62 1   
    63   61   64 1   
    64   61   69 1   
    65   62   63 2   
    66   62   74 1   
    67   64   65 1   
    68   64   70 1   
    69   64   71 1   
    70   65   66 1   
    71   65   67 2   
    72   66   72 1   
    73   66   73 1   
    74   74   75 1   
    75   74   78 1   
    76   75   76 1   
    77   75   79 1   
    78   75   80 1   
    79   76   77 2   
    80   76   81 1   
    81   81   82 1   
    82   81   93 1   
    83   82   83 1   
    84   82   85 1   
    85   82   94 1   
    86   83   84 2   
    87   83  102 1   
    88   85   86 1   
    89   85   95 1   
    90   85   96 1   
    91   86   87 ar  
    92   86   88 ar  
    93   87   89 ar  
    94   87   97 1   
    95   88   90 ar  
    96   88   98 1   
    97   89   91 ar  
    98   89   99 1   
    99   90   91 ar  
   100   90  100 1   
   101   91   92 1   
   102   92  101 1   
   103  102  103 1   
   104  102  110 1   
   105  103  104 1   
   106  103  106 1   
   107  103  111 1   
   108  104  105 2   
   109  104  121 1   
   110  106  107 1   
   111  106  108 1   
   112  106  112 1   
   113  107  109 1   
   114  107  113 1   
   115  107  114 1   
   116  108  115 1   
   117  108  116 1   
   118  108  117 1   
   119  109  118 1   
   120  109  119 1   
   121  109  120 1   
   122  121  122 1   
   123  121  127 1   
   124  122  123 1   
   125  122  125 1   
   126  122  128 1   
   127  123  124 2   
   128  123  132 1   
   129  125  126 1   
   130  125  129 1   
   131  125  130 1   
   132  126  131 1   
   133  132  133 1   
   134  132  137 1   
   135  133  134 1   
   136  133  136 1   
   137  133  138 1   
   138  134  135 2   
   139  134  142 1   
   140  136  139 1   
   141  136  140 1   
   142  136  141 1   
   143  142  143 1   
   144  142  147 1   
   145  143  144 1   
   146  143  146 1   
   147  143  148 1   
   148  144  145 2   
   149  144  152 1   
   150  146  149 1   
   151  146  150 1   
   152  146  151 1   
   153  152  153 1   
   154  152  161 1   
   155  153  154 1   
   156  153  156 1   
   157  153  162 1   
   158  154  155 2   
   159  154  167 1   
   160  156  157 1   
   161  156  163 1   
   162  156  164 1   
   163  157  158 1   
   164  157  165 1   
   165  157  166 1   
   166  158  159 1   
   167  158  160 1   
   168  167  168 1   
   169  167  172 1   
   170  168  169 1   
   171  168  170 1   
   172  168  171 1   
   173  174  175 1   
   174  174  176 1   
   175  177  178 1   
   176  177  179 1   
@<TRIPOS>SUBSTRUCTURE
     1 MOL         1 TEMP              0 ****  ****    0 ROOT
