@<TRIPOS>MOLECULE
MOL
  189   185     1     0     0
SMALL
resp


@<TRIPOS>ATOM
      1 C1         -0.8210    4.8860    5.8050 c3        1 MOL     -0.329146
      2 C2         -1.1840    4.1770    4.4910 c         1 MOL      0.754171
      3 O1         -1.1670    2.9180    4.4540 o         1 MOL     -0.633484
      4 H1         -1.2090    4.3130    6.6460 hc        1 MOL      0.080859
      5 H2          0.2630    4.9640    5.8880 hc        1 MOL      0.080859
      6 H3         -1.2580    5.8850    5.8130 hc        1 MOL      0.080859
      7 N1         -1.4870    4.8980    3.4310 n         1 MOL     -0.628335
      8 C3         -2.0640    4.3090    2.1940 c3        1 MOL      0.237589
      9 C4         -1.9810    5.2780    1.0240 c         1 MOL      0.431723
     10 O2         -2.2940    6.4480    1.0960 o         1 MOL     -0.586812
     11 C5         -3.5510    3.9880    2.3630 c3        1 MOL     -0.207555
     12 C6         -4.2260    3.3990    1.1460 c         1 MOL      0.783873
     13 O3         -5.4820    3.3960    0.9900 o         1 MOL     -0.709642
     14 O4         -3.5010    2.7630    0.3280 o         1 MOL     -0.709642
     15 H4         -1.3310    5.8970    3.3640 hn        1 MOL      0.320274
     16 H5         -1.5040    3.4110    1.9580 h1        1 MOL      0.053819
     17 H6         -4.0770    4.9170    2.5590 hc        1 MOL      0.022419
     18 H7         -3.7060    3.4030    3.2740 hc        1 MOL      0.022419
     19 N2         -1.4600    4.7630   -0.0510 n         1 MOL     -0.078700
     20 C7         -1.1210    5.4510   -1.3250 c3        1 MOL      0.019366
     21 C8         -2.0680    4.9970   -2.5040 c         1 MOL      0.512488
     22 O5         -2.6020    5.8600   -3.1980 o         1 MOL     -0.577243
     23 C9          0.3170    5.1640   -1.6970 c3        1 MOL      0.220641
     24 C10         1.2450    5.6370   -0.5880 c3        1 MOL      0.037041
     25 C11         0.6950    6.0260   -2.8990 c3        1 MOL     -0.449534
     26 C12         2.7760    5.4800   -0.8820 c3        1 MOL     -0.227517
     27 H8         -1.1960    3.7980   -0.0050 hn        1 MOL     -0.068395
     28 H9         -1.2400    6.5170   -1.1490 h1        1 MOL      0.044829
     29 H10         0.4390    4.1180   -1.9520 hc        1 MOL      0.023619
     30 H11         1.0760    5.1170    0.3520 hc        1 MOL     -0.013842
     31 H12         1.0070    6.6460   -0.2450 hc        1 MOL     -0.013842
     32 H13         0.4170    7.0290   -2.5980 hc        1 MOL      0.096242
     33 H14         1.7410    5.7830   -3.1260 hc        1 MOL      0.096242
     34 H15         0.0930    5.8170   -3.7820 hc        1 MOL      0.096242
     35 H16         2.9510    4.5120   -1.3470 hc        1 MOL      0.062259
     36 H17         3.1780    6.3030   -1.4650 hc        1 MOL      0.062259
     37 H18         3.2110    5.4150    0.1120 hc        1 MOL      0.062259
     38 N3         -2.2210    3.6680   -2.6720 n         1 MOL     -0.323476
     39 C13        -2.8390    3.0610   -3.8690 c3        1 MOL      0.091298
     40 C14        -4.3060    2.6820   -3.6600 c         1 MOL      0.381707
     41 O6         -4.9710    2.4330   -4.6860 o         1 MOL     -0.592115
     42 C15        -1.9900    1.9270   -4.3800 c3        1 MOL     -0.271341
     43 C16        -1.7640    0.8000   -3.4000 c         1 MOL      0.803672
     44 O7         -2.3400    0.7680   -2.2830 o         1 MOL     -0.737844
     45 O8         -0.9370   -0.1320   -3.6500 o         1 MOL     -0.737844
     46 H19        -2.0120    3.0500   -1.9000 hn        1 MOL      0.202787
     47 H20        -2.9500    3.7400   -4.7080 h1        1 MOL      0.085791
     48 H21        -1.0550    2.3220   -4.7780 hc        1 MOL      0.068058
     49 H22        -2.4650    1.4430   -5.2280 hc        1 MOL      0.068058
     50 N4         -4.9050    2.7190   -2.5190 n         1 MOL     -0.088526
     51 C17        -6.3150    2.5380   -2.1200 c3        1 MOL     -0.238818
     52 C18        -6.9070    1.1900   -2.1440 c         1 MOL      0.605046
     53 O9         -8.1230    1.0540   -2.2140 o         1 MOL     -0.633520
     54 H23        -4.2690    2.9310   -1.7500 hn        1 MOL      0.120600
     55 H24        -6.9770    3.0790   -2.7880 h1        1 MOL      0.114956
     56 H25        -6.5480    2.8540   -1.0950 h1        1 MOL      0.114956
     57 N5         -6.0980    0.1320   -2.2280 n         1 MOL     -0.276141
     58 C19        -6.5870   -1.3260   -2.3020 c3        1 MOL     -0.015103
     59 C20        -7.2390   -1.9670   -1.0710 c         1 MOL      0.426315
     60 O10        -8.0150   -2.9480   -1.2210 o         1 MOL     -0.529892
     61 C21        -5.4260   -2.1620   -2.8110 c3        1 MOL     -0.359026
     62 C22        -4.0930   -2.1340   -2.0590 c         1 MOL      0.890595
     63 O11        -3.9010   -1.3420   -1.1060 o         1 MOL     -0.711929
     64 O12        -3.1170   -2.8390   -2.4140 o         1 MOL     -0.711929
     65 H26        -5.1040    0.2490   -2.0790 hn        1 MOL      0.219660
     66 H27        -7.3800   -1.3770   -3.0400 h1        1 MOL      0.117296
     67 H28        -5.1590   -1.8830   -3.8340 hc        1 MOL      0.094237
     68 H29        -5.6790   -3.2260   -2.7530 hc        1 MOL      0.094237
     69 N6         -6.9610   -1.4190    0.1140 n         1 MOL     -0.285315
     70 C23        -7.2330   -1.9190    1.4510 c3        1 MOL      0.043503
     71 C24        -6.2540   -3.0450    1.8660 c         1 MOL      0.413503
     72 O13        -6.6320   -4.0240    2.5380 o         1 MOL     -0.563516
     73 H30        -6.6470   -0.4630    0.1140 hn        1 MOL      0.261214
     74 H31        -8.2690   -2.2030    1.6310 h1        1 MOL      0.037885
     75 H32        -7.0880   -1.0570    2.1030 h1        1 MOL      0.037885
     76 N7         -4.9970   -3.0090    1.3660 n         1 MOL     -0.145869
     77 C25        -3.9300   -3.8300    1.6330 c3        1 MOL      0.074383
     78 C26        -2.6660   -3.0100    1.9100 c         1 MOL      0.367578
     79 O14        -2.6670   -1.8230    1.6620 o         1 MOL     -0.388749
     80 C27        -3.7220   -4.9030    0.5880 c3        1 MOL     -0.284608
     81 C28        -4.9490   -5.5870    0.0380 c3        1 MOL     -0.073930
     82 C29        -4.6550   -6.9220   -0.6790 c         1 MOL      0.646763
     83 N8         -5.6520   -7.6650   -0.9630 n         1 MOL     -0.784817
     84 O15        -3.5190   -7.2350   -0.9650 o         1 MOL     -0.562513
     85 H33        -4.7270   -2.1590    0.8860 hn        1 MOL      0.025422
     86 H34        -4.1630   -4.4000    2.5310 h1        1 MOL      0.027776
     87 H35        -3.0390   -5.6200    1.0510 hc        1 MOL      0.105315
     88 H36        -3.2870   -4.4780   -0.3180 hc        1 MOL      0.105315
     89 H37        -5.4840   -4.9360   -0.6460 hc        1 MOL      0.065789
     90 H38        -5.6770   -5.7850    0.8240 hc        1 MOL      0.065789
     91 H39        -6.6150   -7.4660   -0.7160 hn        1 MOL      0.343568
     92 H40        -5.5000   -8.5570   -1.4160 hn        1 MOL      0.343568
     93 N9         -1.5040   -3.6330    2.3170 n         1 MOL     -0.298843
     94 C30        -0.2310   -3.0290    2.6090 c3        1 MOL     -0.033464
     95 C31         0.7710   -3.5540    1.5990 c         1 MOL      0.480675
     96 O16         0.8990   -4.7710    1.4830 o         1 MOL     -0.565759
     97 C32         0.2030   -3.4590    4.0070 c3        1 MOL      0.265362
     98 C33         1.4660   -2.6820    4.4860 c3        1 MOL     -0.368165
     99 C34        -0.9060   -2.9670    4.9540 c3        1 MOL     -0.368165
    100 H41        -1.5710   -4.6330    2.4290 hn        1 MOL      0.257563
    101 H42        -0.2930   -1.9380    2.5860 h1        1 MOL      0.066479
    102 H43         0.3710   -4.5320    4.1010 hc        1 MOL     -0.021621
    103 H44         2.2630   -2.6690    3.7480 hc        1 MOL      0.082792
    104 H45         1.1730   -1.6580    4.7520 hc        1 MOL      0.082792
    105 H46         1.8130   -3.0630    5.4450 hc        1 MOL      0.082792
    106 H47        -1.2020   -1.9290    4.8040 hc        1 MOL      0.082792
    107 H48        -1.7830   -3.5840    4.7290 hc        1 MOL      0.082792
    108 H49        -0.5570   -3.0820    5.9720 hc        1 MOL      0.082792
    109 N10         1.4300   -2.6360    0.8570 n         1 MOL     -0.369114
    110 C35         2.5960   -2.7860   -0.0120 c3        1 MOL      0.335331
    111 C36         3.9380   -2.5090    0.7260 c         1 MOL      0.076736
    112 O17         4.0420   -1.9040    1.8030 o         1 MOL     -0.226205
    113 C37         2.3780   -1.8100   -1.2160 c3        1 MOL     -0.405362
    114 C38         3.5190   -1.8410   -2.2520 c         1 MOL      0.668924
    115 N11         3.6110   -2.9490   -2.9230 n         1 MOL     -0.720094
    116 O18         4.3780   -0.9990   -2.3630 o         1 MOL     -0.507452
    117 H50         1.1820   -1.6910    1.1320 hn        1 MOL      0.254672
    118 H51         2.6070   -3.8280   -0.3330 h1        1 MOL      0.013695
    119 H52         2.3850   -0.7950   -0.8300 hc        1 MOL      0.146269
    120 H53         1.4740   -2.0250   -1.7820 hc        1 MOL      0.146269
    121 H54         2.9070   -3.6470   -2.7700 hn        1 MOL      0.337064
    122 H55         4.3990   -3.1070   -3.5380 hn        1 MOL      0.337064
    123 N12         5.0500   -2.7960    0.0090 n         1 MOL     -0.014251
    124 C39         6.3390   -2.5960    0.6890 c3        1 MOL     -0.057876
    125 C40         6.7980   -1.1390    0.7310 c         1 MOL      0.491390
    126 O19         7.5460   -0.7240    1.5870 o         1 MOL     -0.569898
    127 C41         7.4510   -3.4180   -0.1020 c3        1 MOL     -0.130693
    128 C42         7.5190   -3.3370   -1.5950 ca        1 MOL     -0.072343
    129 C43         6.7410   -4.1930   -2.4390 ca        1 MOL     -0.063983
    130 C44         8.2850   -2.3050   -2.2520 ca        1 MOL     -0.063983
    131 C45         6.6360   -3.9240   -3.8430 ca        1 MOL     -0.394503
    132 C46         8.2110   -2.1010   -3.6700 ca        1 MOL     -0.394503
    133 C47         7.4200   -2.9190   -4.4350 ca        1 MOL      0.504247
    134 O20         7.3050   -2.6700   -5.6790 oh        1 MOL     -0.561843
    135 H56         4.9400   -3.3740   -0.8090 hn        1 MOL      0.077561
    136 H57         6.3920   -2.9770    1.7070 h1        1 MOL      0.072885
    137 H58         7.4040   -4.4790    0.1370 hc        1 MOL      0.068228
    138 H59         8.3890   -3.0450    0.3000 hc        1 MOL      0.068228
    139 H60         6.2070   -5.0540   -2.0510 ha        1 MOL      0.119693
    140 H61         8.8230   -1.6200   -1.6100 ha        1 MOL      0.119693
    141 H62         6.0790   -4.5050   -4.5640 ha        1 MOL      0.160582
    142 H63         8.8790   -1.3400   -4.0710 ha        1 MOL      0.160582
    143 H64         7.7820   -1.8570   -5.8480 ho        1 MOL      0.426043
    144 N13         6.0720   -0.2290    0.0140 n         1 MOL      0.037154
    145 C48         6.3490    1.2390    0.1750 c3        1 MOL     -0.390609
    146 C49         5.6640    1.9180    1.3810 c         1 MOL      0.523395
    147 O21         5.8280    3.1040    1.7200 o         1 MOL     -0.525592
    148 C50         6.0900    1.9880   -1.1710 c3        1 MOL      0.142091
    149 C51         7.2490    1.7500   -2.1480 c3        1 MOL     -0.161314
    150 C52         8.6650    2.2020   -1.6140 c         1 MOL      0.632758
    151 O22         9.6330    1.4650   -1.7670 o         1 MOL     -0.697266
    152 O23         8.7900    3.3610   -1.1180 o         1 MOL     -0.697266
    153 H65         5.3950   -0.5350   -0.6610 hn        1 MOL      0.122028
    154 H66         7.4000    1.4270    0.3700 h1        1 MOL      0.216401
    155 H67         6.1670    3.0540   -0.9300 hc        1 MOL     -0.018885
    156 H68         5.1810    1.6550   -1.6900 hc        1 MOL     -0.018885
    157 H69         6.9840    2.2520   -3.0730 hc        1 MOL      0.012980
    158 H70         7.2620    0.6630   -2.3070 hc        1 MOL      0.012980
    159 N14         4.6790    1.1920    1.9680 n         1 MOL     -0.245407
    160 C53         3.6960    1.7170    2.9530 c3        1 MOL      0.018143
    161 C54         3.8640    0.9130    4.2720 c         1 MOL      0.372594
    162 O24         3.7670    1.5130    5.3380 o         1 MOL     -0.553783
    163 C55         2.1890    1.5220    2.5760 c3        1 MOL      0.162815
    164 C56         1.7820    1.9410    1.1710 c3        1 MOL     -0.199847
    165 C57         0.3790    1.4660    0.8180 c         1 MOL      0.711899
    166 O25        -0.3240    2.0960   -0.0010 o         1 MOL     -0.686395
    167 O26         0.0100    0.3460    1.1830 o         1 MOL     -0.686395
    168 H71         4.5410    0.1960    1.8010 hn        1 MOL      0.080838
    169 H72         3.8390    2.7870    3.1130 h1        1 MOL      0.067597
    170 H73         1.5770    2.0050    3.3360 hc        1 MOL     -0.015201
    171 H74         1.9560    0.4640    2.7020 hc        1 MOL     -0.015201
    172 H75         2.4940    1.5030    0.4730 hc        1 MOL      0.046504
    173 H76         1.9490    3.0160    1.0890 hc        1 MOL      0.046504
    174 N15         4.2060   -0.3820    4.2340 n         1 MOL     -0.032412
    175 C58         4.6740   -1.1240    5.4220 c3        1 MOL     -0.202362
    176 H77         3.8540   -1.7200    5.8230 h1        1 MOL      0.076991
    177 H78         5.4960   -1.7810    5.1400 h1        1 MOL      0.076991
    178 H79         5.0150   -0.4190    6.1800 h1        1 MOL      0.076991
    179 H80         4.2530   -0.8700    3.3470 hn        1 MOL      0.040906
    180 Ca1        -2.4240    0.3830    0.2080 Ca        1 MOL      1.771106
    181 O27        -2.3680    0.8680    2.8850 oh        1 MOL     -0.929692
    182 H81        -2.8570    0.7110    3.6930 ho        1 MOL      0.437666
    183 H82        -1.7410    1.5510    3.1250 ho        1 MOL      0.437666
    184 O28        -4.9340    0.2990    1.3710 oh        1 MOL     -0.929692
    185 H83        -4.7090    0.0770    2.2770 ho        1 MOL      0.437666
    186 H84        -5.8340    0.6210    1.4090 ho        1 MOL      0.437666
    187 O29        -1.0280   -1.5320   -1.2780 oh        1 MOL     -0.929692
    188 H85        -1.7520   -2.0710   -1.6110 ho        1 MOL      0.437666
    189 H86        -0.6160   -1.1750   -2.0590 ho        1 MOL      0.437666
@<TRIPOS>BOND
     1    1    2 1   
     2    1    4 1   
     3    1    5 1   
     4    1    6 1   
     5    2    3 2   
     6    2    7 1   
     7    7    8 1   
     8    7   15 1   
     9    8    9 1   
    10    8   11 1   
    11    8   16 1   
    12    9   10 2   
    13    9   19 1   
    14   11   12 1   
    15   11   17 1   
    16   11   18 1   
    17   12   13 1   
    18   12   14 1   
    19   19   20 1   
    20   19   27 1   
    21   20   21 1   
    22   20   23 1   
    23   20   28 1   
    24   21   22 2   
    25   21   38 1   
    26   23   24 1   
    27   23   25 1   
    28   23   29 1   
    29   24   26 1   
    30   24   30 1   
    31   24   31 1   
    32   25   32 1   
    33   25   33 1   
    34   25   34 1   
    35   26   35 1   
    36   26   36 1   
    37   26   37 1   
    38   38   39 1   
    39   38   46 1   
    40   39   40 1   
    41   39   42 1   
    42   39   47 1   
    43   40   41 2   
    44   40   50 1   
    45   42   43 1   
    46   42   48 1   
    47   42   49 1   
    48   43   44 1   
    49   43   45 1   
    50   50   51 1   
    51   50   54 1   
    52   51   52 1   
    53   51   55 1   
    54   51   56 1   
    55   52   53 2   
    56   52   57 1   
    57   57   58 1   
    58   57   65 1   
    59   58   59 1   
    60   58   61 1   
    61   58   66 1   
    62   59   60 2   
    63   59   69 1   
    64   61   62 1   
    65   61   67 1   
    66   61   68 1   
    67   62   63 1   
    68   62   64 1   
    69   69   70 1   
    70   69   73 1   
    71   70   71 1   
    72   70   74 1   
    73   70   75 1   
    74   71   72 2   
    75   71   76 1   
    76   76   77 1   
    77   76   85 1   
    78   77   78 1   
    79   77   80 1   
    80   77   86 1   
    81   78   79 2   
    82   78   93 1   
    83   80   81 1   
    84   80   87 1   
    85   80   88 1   
    86   81   82 1   
    87   81   89 1   
    88   81   90 1   
    89   82   83 1   
    90   82   84 2   
    91   83   91 1   
    92   83   92 1   
    93   93   94 1   
    94   93  100 1   
    95   94   95 1   
    96   94   97 1   
    97   94  101 1   
    98   95   96 2   
    99   95  109 1   
   100   97   98 1   
   101   97   99 1   
   102   97  102 1   
   103   98  103 1   
   104   98  104 1   
   105   98  105 1   
   106   99  106 1   
   107   99  107 1   
   108   99  108 1   
   109  109  110 1   
   110  109  117 1   
   111  110  111 1   
   112  110  113 1   
   113  110  118 1   
   114  111  112 2   
   115  111  123 1   
   116  113  114 1   
   117  113  119 1   
   118  113  120 1   
   119  114  115 1   
   120  114  116 2   
   121  115  121 1   
   122  115  122 1   
   123  123  124 1   
   124  123  135 1   
   125  124  125 1   
   126  124  127 1   
   127  124  136 1   
   128  125  126 2   
   129  125  144 1   
   130  127  128 1   
   131  127  137 1   
   132  127  138 1   
   133  128  129 ar  
   134  128  130 ar  
   135  129  131 ar  
   136  129  139 1   
   137  130  132 ar  
   138  130  140 1   
   139  131  133 ar  
   140  131  141 1   
   141  132  133 ar  
   142  132  142 1   
   143  133  134 1   
   144  134  143 1   
   145  144  145 1   
   146  144  153 1   
   147  145  146 1   
   148  145  148 1   
   149  145  154 1   
   150  146  147 2   
   151  146  159 1   
   152  148  149 1   
   153  148  155 1   
   154  148  156 1   
   155  149  150 1   
   156  149  157 1   
   157  149  158 1   
   158  150  151 1   
   159  150  152 1   
   160  159  160 1   
   161  159  168 1   
   162  160  161 1   
   163  160  163 1   
   164  160  169 1   
   165  161  162 2   
   166  161  174 1   
   167  163  164 1   
   168  163  170 1   
   169  163  171 1   
   170  164  165 1   
   171  164  172 1   
   172  164  173 1   
   173  165  166 1   
   174  165  167 1   
   175  174  175 1   
   176  174  179 1   
   177  175  176 1   
   178  175  177 1   
   179  175  178 1   
   180  181  182 1   
   181  181  183 1   
   182  184  185 1   
   183  184  186 1   
   184  187  188 1   
   185  187  189 1   
@<TRIPOS>SUBSTRUCTURE
     1 MOL         1 TEMP              0 ****  ****    0 ROOT
