@<TRIPOS>MOLECULE
MOL
  175   173     1     0     0
SMALL
resp


@<TRIPOS>ATOM
      1 C1          0.1870    3.9240    5.5890 c3        1 MOL     -0.411353
      2 C2         -0.3520    4.1240    4.1420 c         1 MOL      0.687834
      3 O1          0.4470    4.3780    3.2670 o         1 MOL     -0.544480
      4 H1         -0.5230    3.3280    6.1620 hc        1 MOL      0.095602
      5 H2          1.1460    3.4060    5.5510 hc        1 MOL      0.095602
      6 H3          0.3150    4.8950    6.0670 hc        1 MOL      0.095602
      7 N1         -1.6210    3.9500    3.9210 n         1 MOL     -0.591288
      8 C3         -2.2130    3.5820    2.6150 c3        1 MOL      0.186296
      9 C4         -2.2860    4.6860    1.6140 c         1 MOL      0.511436
     10 O2         -2.4890    5.8380    2.0020 o         1 MOL     -0.572233
     11 C5         -3.6260    2.9870    2.9410 c3        1 MOL     -0.473073
     12 C6         -4.1500    2.1470    1.7880 c         1 MOL      0.855557
     13 O3         -5.2240    1.5450    2.0280 o         1 MOL     -0.692532
     14 O4         -3.4650    1.9280    0.7510 o         1 MOL     -0.692532
     15 H4         -2.1870    4.0780    4.7490 hn        1 MOL      0.318423
     16 H5         -1.6530    2.7230    2.2530 h1        1 MOL      0.080744
     17 H6         -4.3390    3.8150    3.0460 hc        1 MOL      0.113739
     18 H7         -3.5190    2.3730    3.8340 hc        1 MOL      0.113739
     19 N2         -2.2890    4.3860    0.3350 n         1 MOL     -0.391473
     20 C7         -2.4990    5.2890   -0.8510 c3        1 MOL      0.301468
     21 C8         -3.6870    5.0400   -1.7020 c         1 MOL      0.521707
     22 O5         -4.0720    5.8790   -2.5060 o         1 MOL     -0.562654
     23 C9         -1.1900    5.3700   -1.7050 c3        1 MOL     -0.196408
     24 H8         -1.9450    3.4590    0.1230 hn        1 MOL      0.190079
     25 H9         -2.6860    6.2740   -0.4290 h1        1 MOL     -0.012664
     26 H10        -0.3450    5.6120   -1.0620 hc        1 MOL      0.049006
     27 H11        -0.9510    4.4460   -2.2300 hc        1 MOL      0.049006
     28 H12        -1.2860    6.1710   -2.4370 hc        1 MOL      0.049006
     29 N3         -4.2850    3.8090   -1.5200 n         1 MOL     -0.565058
     30 C10        -5.1510    3.2380   -2.5600 c3        1 MOL      0.295132
     31 C11        -6.3650    2.5100   -2.0530 c         1 MOL      0.336189
     32 O6         -7.2920    2.4710   -2.8380 o         1 MOL     -0.547310
     33 C12        -4.3110    2.4180   -3.5460 c3        1 MOL     -0.355494
     34 C13        -3.4990    1.4060   -2.8340 c         1 MOL      0.802665
     35 O7         -3.9790    0.7370   -1.8760 o         1 MOL     -0.711644
     36 O8         -2.3080    1.1380   -3.1730 o         1 MOL     -0.711644
     37 H13        -3.8560    3.1920   -0.8530 hn        1 MOL      0.272632
     38 H14        -5.5680    4.0950   -3.1000 h1        1 MOL      0.058650
     39 H15        -3.6800    3.0910   -4.1180 hc        1 MOL      0.083191
     40 H16        -4.9370    1.8380   -4.2210 hc        1 MOL      0.083191
     41 N4         -6.4490    1.9140   -0.8400 n         1 MOL     -0.135560
     42 C14        -7.5230    1.0040   -0.3300 c3        1 MOL     -0.171185
     43 C15        -7.5990   -0.3480   -0.9760 c         1 MOL      0.516888
     44 O9         -8.7120   -0.9160   -0.9850 o         1 MOL     -0.583438
     45 H17        -5.6690    2.0690   -0.2070 hn        1 MOL      0.071723
     46 H18        -8.5220    1.4580   -0.3400 h1        1 MOL      0.097203
     47 H19        -7.2570    0.8070    0.7090 h1        1 MOL      0.097203
     48 N5         -6.4230   -0.7730   -1.4930 n         1 MOL     -0.303986
     49 C16        -6.2460   -2.0880   -2.1410 c3        1 MOL     -0.030651
     50 C17        -6.0830   -3.2210   -1.1610 c         1 MOL      0.453803
     51 O10        -6.1190   -4.4060   -1.5570 o         1 MOL     -0.540892
     52 C18        -5.0410   -2.0010   -3.1270 c3        1 MOL     -0.021907
     53 C19        -3.6620   -2.2000   -2.4800 c         1 MOL      0.596610
     54 N6         -2.7220   -2.2920   -3.3490 n         1 MOL     -0.542865
     55 O11        -3.4330   -2.1250   -1.2820 o         1 MOL     -0.668395
     56 H20        -5.6700   -0.1090   -1.5920 hn        1 MOL      0.304043
     57 H21        -7.1310   -2.3730   -2.7090 h1        1 MOL      0.098438
     58 H22        -5.0570   -1.0880   -3.7250 hc        1 MOL      0.008917
     59 H23        -5.1510   -2.8450   -3.8100 hc        1 MOL      0.008917
     60 H24        -3.0740   -2.2170   -4.2920 hn        1 MOL      0.301750
     61 H25        -1.7480   -2.3140   -3.1030 hn        1 MOL      0.301750
     62 N7         -6.0730   -2.9320    0.1670 n         1 MOL     -0.164340
     63 C20        -6.3270   -3.9060    1.1970 c3        1 MOL     -0.360214
     64 C21        -4.9840   -4.3510    1.8170 c         1 MOL      0.517542
     65 O12        -4.9410   -5.2450    2.6090 o         1 MOL     -0.584476
     66 H26        -6.1890   -1.9480    0.3590 hn        1 MOL      0.220606
     67 H27        -6.8520   -4.7380    0.7290 h1        1 MOL      0.159005
     68 H28        -6.8030   -3.5130    2.0950 h1        1 MOL      0.159005
     69 N8         -3.8890   -3.9000    1.3300 n         1 MOL     -0.094162
     70 C22        -2.5640   -4.3660    1.4950 c3        1 MOL     -0.136018
     71 C23        -1.4330   -3.3040    1.4650 c         1 MOL      0.288576
     72 O13        -1.6200   -2.1810    1.0360 o         1 MOL     -0.446173
     73 C24        -2.2480   -5.3370    0.3330 c3        1 MOL      0.688202
     74 C25        -3.1450   -6.6870    0.3470 c3        1 MOL     -0.539936
     75 O14        -2.4300   -4.7230   -0.9340 oh        1 MOL     -0.675750
     76 H29        -3.9650   -3.1920    0.6180 hn        1 MOL      0.069068
     77 H30        -2.4700   -5.0300    2.3620 h1        1 MOL      0.051336
     78 H31        -1.2230   -5.6990    0.4730 h1        1 MOL     -0.075089
     79 H32        -2.7990   -3.8380   -0.8370 ho        1 MOL      0.390662
     80 H33        -2.5840   -7.3920   -0.2610 hc        1 MOL      0.125446
     81 H34        -3.1820   -7.0220    1.3870 hc        1 MOL      0.125446
     82 H35        -4.1460   -6.5390   -0.0470 hc        1 MOL      0.125446
     83 N9         -0.2010   -3.6810    1.8990 n         1 MOL     -0.326152
     84 C26         1.0180   -2.8550    1.9160 c3        1 MOL      0.008136
     85 C27         1.8260   -3.1730    0.6190 c         1 MOL      0.404771
     86 O15         2.2160   -4.2920    0.2370 o         1 MOL     -0.562483
     87 C28         1.8120   -2.9530    3.2170 c3        1 MOL     -0.000375
     88 C29         0.9890   -2.8700    4.4780 c3        1 MOL      0.444755
     89 C30         2.7870   -1.7510    3.2180 c3        1 MOL     -0.209733
     90 C31         1.8010   -2.8450    5.7920 c3        1 MOL     -0.363513
     91 H36        -0.0880   -4.6550    2.1710 hn        1 MOL      0.240750
     92 H37         0.6810   -1.8150    1.8780 h1        1 MOL      0.095973
     93 H38         2.3540   -3.8920    3.3290 hc        1 MOL     -0.006969
     94 H39         0.3430   -3.7440    4.6070 hc        1 MOL     -0.111429
     95 H40         0.3200   -2.0040    4.4070 hc        1 MOL     -0.111429
     96 H41         3.3390   -1.7050    2.2770 hc        1 MOL      0.041400
     97 H42         2.2700   -0.8260    3.4880 hc        1 MOL      0.041400
     98 H43         3.5210   -1.8710    4.0230 hc        1 MOL      0.041400
     99 H44         2.1760   -1.8390    5.9640 hc        1 MOL      0.071441
    100 H45         1.1130   -3.2080    6.5570 hc        1 MOL      0.071441
    101 H46         2.6300   -3.5300    5.6540 hc        1 MOL      0.071441
    102 N10         1.9730   -2.1100   -0.1620 n         1 MOL     -0.182426
    103 C32         2.8520   -1.9420   -1.3460 c3        1 MOL      0.123199
    104 C33         4.2700   -1.4480   -0.9580 c         1 MOL      0.365427
    105 O16         4.4690   -0.9200    0.1260 o         1 MOL     -0.286627
    106 C34         2.1660   -0.9090   -2.2950 c3        1 MOL     -0.314367
    107 C35         0.7120   -1.3220   -2.6150 c         1 MOL      0.716720
    108 O17        -0.1890   -1.0390   -1.8060 o         1 MOL     -0.667717
    109 O18         0.5570   -1.9610   -3.6800 o         1 MOL     -0.667717
    110 H47         1.4850   -1.3050    0.1960 hn        1 MOL      0.204075
    111 H48         2.9310   -2.8980   -1.8570 h1        1 MOL      0.064431
    112 H49         2.7450   -0.9620   -3.2160 hc        1 MOL      0.075104
    113 H50         2.2900    0.1140   -1.9450 hc        1 MOL      0.075104
    114 N11         5.2540   -1.5800   -1.8700 n         1 MOL     -0.639114
    115 C36         6.6920   -1.2740   -1.5120 c3        1 MOL      0.414181
    116 C37         6.8950    0.2050   -1.1520 c         1 MOL      0.242704
    117 O19         7.5330    0.5230   -0.1420 o         1 MOL     -0.501034
    118 C38         7.7210   -1.8540   -2.5400 c3        1 MOL     -0.183248
    119 C39         9.1350   -1.8070   -2.0690 ca        1 MOL      0.018198
    120 C40         9.6070   -2.5730   -0.9440 ca        1 MOL     -0.079581
    121 C41         9.9640   -0.9460   -2.7280 ca        1 MOL     -0.079581
    122 C42        10.9080   -2.4210   -0.5340 ca        1 MOL     -0.198764
    123 C43        11.3200   -0.7680   -2.3540 ca        1 MOL     -0.198764
    124 C44        11.7980   -1.5250   -1.2390 ca        1 MOL     -0.024102
    125 H51         5.0380   -1.9770   -2.7800 hn        1 MOL      0.330781
    126 H52         6.8230   -1.8110   -0.5700 h1        1 MOL      0.037588
    127 H53         7.6660   -1.3470   -3.5040 hc        1 MOL      0.055272
    128 H54         7.4200   -2.8780   -2.7130 hc        1 MOL      0.055272
    129 H55         8.9400   -3.1940   -0.3670 ha        1 MOL      0.103283
    130 H56         9.6170   -0.5480   -3.6680 ha        1 MOL      0.103283
    131 H57        11.2100   -2.9910    0.3370 ha        1 MOL      0.134180
    132 H58        11.9340    0.0050   -2.8060 ha        1 MOL      0.134180
    133 H59        12.8540   -1.5200   -0.9990 ha        1 MOL      0.076433
    134 N12         6.3190    1.1620   -1.8460 n         1 MOL     -0.002943
    135 C45         6.3600    2.6020   -1.4030 c3        1 MOL     -0.073389
    136 C46         5.7590    2.8030   -0.0040 c         1 MOL      0.359678
    137 O20         6.0940    3.7860    0.6170 o         1 MOL     -0.514594
    138 C47         5.6200    3.3870   -2.4690 c3        1 MOL     -0.058322
    139 C48         5.9620    2.5610   -3.7370 c3        1 MOL      0.061255
    140 C49         5.7320    1.1730   -3.1920 c3        1 MOL     -0.121572
    141 H60         7.4210    2.8370   -1.4400 h1        1 MOL      0.098745
    142 H61         4.5510    3.3840   -2.3170 hc        1 MOL      0.052411
    143 H62         5.9220    4.4210   -2.6070 hc        1 MOL      0.052411
    144 H63         5.3950    2.7810   -4.6490 hc        1 MOL      0.003603
    145 H64         7.0230    2.6760   -3.9380 hc        1 MOL      0.003603
    146 H65         4.6660    1.0380   -3.0140 h1        1 MOL      0.054101
    147 H66         6.1410    0.3840   -3.8210 h1        1 MOL      0.054101
    148 N13         4.8250    1.9660    0.4850 n         1 MOL     -0.054186
    149 C50         4.1080    2.2090    1.7350 c3        1 MOL     -0.197446
    150 C51         4.7990    1.5480    2.9150 c         1 MOL      0.533198
    151 O21         4.8120    2.0590    4.0450 o         1 MOL     -0.574875
    152 C52         2.6530    1.6620    1.6030 c3        1 MOL     -0.081326
    153 C53         1.8400    2.2300    0.3910 c3        1 MOL     -0.066873
    154 C54         0.4990    1.5360    0.2350 c         1 MOL      0.533344
    155 O22         0.2500    0.4420    0.7600 o         1 MOL     -0.660394
    156 O23        -0.3540    2.0750   -0.4670 o         1 MOL     -0.660394
    157 H67         4.5810    1.1110    0.0090 hn        1 MOL      0.107706
    158 H68         4.0660    3.2950    1.8690 h1        1 MOL      0.118608
    159 H69         2.2220    1.8590    2.5810 hc        1 MOL      0.073285
    160 H70         2.8010    0.5830    1.4820 hc        1 MOL      0.073285
    161 H71         2.3670    2.2090   -0.5670 hc        1 MOL      0.059665
    162 H72         1.6720    3.2710    0.6480 hc        1 MOL      0.059665
    163 N14         5.4140    0.4440    2.5680 n         1 MOL     -0.108265
    164 C55         6.3660   -0.3300    3.4690 c3        1 MOL     -0.232377
    165 H73         5.8260   -0.6870    4.3460 h1        1 MOL      0.090229
    166 H74         6.7720   -1.1810    2.9220 h1        1 MOL      0.090229
    167 H75         7.1790    0.3220    3.7860 h1        1 MOL      0.090229
    168 H76         5.1500   -0.0240    1.7200 hn        1 MOL      0.088323
    169 Ca1        -2.1020   -0.0280   -0.2550 Ca        1 MOL      1.708482
    170 O24        -4.3470   -0.8400    1.3710 oh        1 MOL     -0.712077
    171 H77        -4.1480   -1.3240    2.1690 ho        1 MOL      0.350138
    172 H78        -4.9010   -0.1170    1.6690 ho        1 MOL      0.350138
    173 O25        -1.7290    0.2920    2.5400 oh        1 MOL     -0.712077
    174 H79        -2.0410    0.7110    3.3430 ho        1 MOL      0.350138
    175 H80        -0.7900    0.4780    2.5260 ho        1 MOL      0.350138
@<TRIPOS>BOND
     1    1    2 1   
     2    1    4 1   
     3    1    5 1   
     4    1    6 1   
     5    2    3 2   
     6    2    7 1   
     7    7    8 1   
     8    7   15 1   
     9    8    9 1   
    10    8   11 1   
    11    8   16 1   
    12    9   10 2   
    13    9   19 1   
    14   11   12 1   
    15   11   17 1   
    16   11   18 1   
    17   12   13 1   
    18   12   14 1   
    19   19   20 1   
    20   19   24 1   
    21   20   21 1   
    22   20   23 1   
    23   20   25 1   
    24   21   22 2   
    25   21   29 1   
    26   23   26 1   
    27   23   27 1   
    28   23   28 1   
    29   29   30 1   
    30   29   37 1   
    31   30   31 1   
    32   30   33 1   
    33   30   38 1   
    34   31   32 2   
    35   31   41 1   
    36   33   34 1   
    37   33   39 1   
    38   33   40 1   
    39   34   35 1   
    40   34   36 1   
    41   41   42 1   
    42   41   45 1   
    43   42   43 1   
    44   42   46 1   
    45   42   47 1   
    46   43   44 2   
    47   43   48 1   
    48   48   49 1   
    49   48   56 1   
    50   49   50 1   
    51   49   52 1   
    52   49   57 1   
    53   50   51 2   
    54   50   62 1   
    55   52   53 1   
    56   52   58 1   
    57   52   59 1   
    58   53   54 1   
    59   53   55 2   
    60   54   60 1   
    61   54   61 1   
    62   62   63 1   
    63   62   66 1   
    64   63   64 1   
    65   63   67 1   
    66   63   68 1   
    67   64   65 2   
    68   64   69 1   
    69   69   70 1   
    70   69   76 1   
    71   70   71 1   
    72   70   73 1   
    73   70   77 1   
    74   71   72 2   
    75   71   83 1   
    76   73   74 1   
    77   73   75 1   
    78   73   78 1   
    79   74   80 1   
    80   74   81 1   
    81   74   82 1   
    82   75   79 1   
    83   83   84 1   
    84   83   91 1   
    85   84   85 1   
    86   84   87 1   
    87   84   92 1   
    88   85   86 2   
    89   85  102 1   
    90   87   88 1   
    91   87   89 1   
    92   87   93 1   
    93   88   90 1   
    94   88   94 1   
    95   88   95 1   
    96   89   96 1   
    97   89   97 1   
    98   89   98 1   
    99   90   99 1   
   100   90  100 1   
   101   90  101 1   
   102  102  103 1   
   103  102  110 1   
   104  103  104 1   
   105  103  106 1   
   106  103  111 1   
   107  104  105 2   
   108  104  114 1   
   109  106  107 1   
   110  106  112 1   
   111  106  113 1   
   112  107  108 1   
   113  107  109 1   
   114  114  115 1   
   115  114  125 1   
   116  115  116 1   
   117  115  118 1   
   118  115  126 1   
   119  116  117 2   
   120  116  134 1   
   121  118  119 1   
   122  118  127 1   
   123  118  128 1   
   124  119  120 ar  
   125  119  121 ar  
   126  120  122 ar  
   127  120  129 1   
   128  121  123 ar  
   129  121  130 1   
   130  122  124 ar  
   131  122  131 1   
   132  123  124 ar  
   133  123  132 1   
   134  124  133 1   
   135  134  135 1   
   136  134  140 1   
   137  135  136 1   
   138  135  138 1   
   139  135  141 1   
   140  136  137 2   
   141  136  148 1   
   142  138  139 1   
   143  138  142 1   
   144  138  143 1   
   145  139  140 1   
   146  139  144 1   
   147  139  145 1   
   148  140  146 1   
   149  140  147 1   
   150  148  149 1   
   151  148  157 1   
   152  149  150 1   
   153  149  152 1   
   154  149  158 1   
   155  150  151 2   
   156  150  163 1   
   157  152  153 1   
   158  152  159 1   
   159  152  160 1   
   160  153  154 1   
   161  153  161 1   
   162  153  162 1   
   163  154  155 1   
   164  154  156 1   
   165  163  164 1   
   166  163  168 1   
   167  164  165 1   
   168  164  166 1   
   169  164  167 1   
   170  170  171 1   
   171  170  172 1   
   172  173  174 1   
   173  173  175 1   
@<TRIPOS>SUBSTRUCTURE
     1 MOL         1 TEMP              0 ****  ****    0 ROOT
