@<TRIPOS>MOLECULE
MOL
  189   185     1     0     0
SMALL
resp


@<TRIPOS>ATOM
      1 C1          0.5110    3.1020   -5.6760 c3        1 MOL     -0.423794
      2 C2          0.7650    2.5310   -4.2640 c         1 MOL      0.655708
      3 O1         -0.1350    2.6570   -3.4000 o         1 MOL     -0.619910
      4 H1         -0.2010    3.9240   -5.6120 hc        1 MOL      0.114851
      5 H2          1.4490    3.4660   -6.0960 hc        1 MOL      0.114851
      6 H3          0.1050    2.3190   -6.3170 hc        1 MOL      0.114851
      7 N1          1.9900    2.0400   -3.8910 n         1 MOL     -0.524428
      8 C3          2.3870    1.8080   -2.5010 c3        1 MOL      0.035320
      9 C4          2.6710    3.0850   -1.8430 c         1 MOL      0.457915
     10 O2          3.7200    3.7050   -2.1600 o         1 MOL     -0.544104
     11 C5          3.6280    0.9430   -2.6320 c3        1 MOL      0.105427
     12 C6          4.2600    0.4180   -1.3610 c         1 MOL      0.700204
     13 O3          3.6400    0.6360   -0.2980 o         1 MOL     -0.678711
     14 O4          5.3950   -0.2080   -1.4350 o         1 MOL     -0.678711
     15 H4          2.6960    1.9090   -4.6070 hn        1 MOL      0.319532
     16 H5          1.5580    1.3690   -1.9500 h1        1 MOL     -0.041170
     17 H6          4.4000    1.3270   -3.2970 hc        1 MOL     -0.028574
     18 H7          3.3200    0.0000   -3.0980 hc        1 MOL     -0.028574
     19 N2          1.7100    3.5650   -1.0190 n         1 MOL     -0.138310
     20 C7          1.4960    4.8940   -0.4380 c3        1 MOL      0.031675
     21 C8          2.1420    4.9390    0.9310 c         1 MOL      0.614375
     22 O5          2.1090    6.0470    1.4920 o         1 MOL     -0.574579
     23 C9          0.0210    5.2080   -0.4880 c3        1 MOL     -0.098514
     24 C10        -0.5100    6.5750   -0.1890 c3        1 MOL     -0.006840
     25 C11         0.2720    7.4720   -1.2070 c3        1 MOL     -0.143845
     26 C12        -0.3880    8.8400   -1.4600 c3        1 MOL      0.008666
     27 N3         -1.2850    8.6890   -2.6540 n4        1 MOL     -0.506398
     28 H8          1.0020    2.8960   -0.7560 hn        1 MOL      0.211801
     29 H9          2.0210    5.6810   -0.9780 h1        1 MOL     -0.021774
     30 H10        -0.5160    4.5820    0.2260 hc        1 MOL      0.061031
     31 H11        -0.2420    4.9550   -1.5210 hc        1 MOL      0.061031
     32 H12        -0.3160    6.8450    0.8480 hc        1 MOL      0.027841
     33 H13        -1.5550    6.6100   -0.4840 hc        1 MOL      0.027841
     34 H14         0.5950    6.9520   -2.1110 hc        1 MOL      0.110112
     35 H15         1.1010    7.8210   -0.5810 hc        1 MOL      0.110112
     36 H16         0.4130    9.5800   -1.5010 hx        1 MOL      0.103466
     37 H17        -0.9390    9.1400   -0.5650 hx        1 MOL      0.103466
     38 H18        -0.8030    8.2590   -3.4290 hn        1 MOL      0.365886
     39 H19        -2.1150    8.1640   -2.4370 hn        1 MOL      0.365886
     40 H20        -1.5940    9.5770   -3.0140 hn        1 MOL      0.365886
     41 N4          2.8170    3.8880    1.4320 n         1 MOL     -0.514022
     42 C13         3.7140    4.0160    2.5830 c3        1 MOL      0.003755
     43 C14         5.0820    3.2600    2.3260 c         1 MOL      0.342712
     44 O6          5.8380    3.0560    3.2640 o         1 MOL     -0.458758
     45 C15         3.0490    3.5630    3.8970 c3        1 MOL     -0.045413
     46 C16         2.4770    2.0940    3.8890 c         1 MOL      0.697144
     47 O7          1.8430    1.7480    4.9330 o         1 MOL     -0.671560
     48 O8          2.7420    1.2780    2.9380 o         1 MOL     -0.671560
     49 H21         2.6950    2.9990    0.9560 hn        1 MOL      0.176293
     50 H22         3.9650    5.0620    2.7540 h1        1 MOL      0.099220
     51 H23         2.3410    4.3280    4.2010 hc        1 MOL      0.025037
     52 H24         3.7880    3.6440    4.6970 hc        1 MOL      0.025037
     53 N5          5.3720    2.7490    1.0930 n         1 MOL      0.036331
     54 C17         6.6950    2.2140    0.7590 c3        1 MOL     -0.437933
     55 C18         7.0930    1.0040    1.5690 c         1 MOL      0.848962
     56 O9          7.9120    1.0570    2.4730 o         1 MOL     -0.614522
     57 H25         4.7370    2.9010    0.3220 hn        1 MOL      0.121321
     58 H26         7.3020    3.1030    0.8820 h1        1 MOL      0.126308
     59 H27         6.6640    1.9830   -0.3020 h1        1 MOL      0.126308
     60 N6          6.6160   -0.1480    1.1710 n         1 MOL     -0.587991
     61 C19         6.9110   -1.4560    1.8150 c3        1 MOL      0.194564
     62 C20         7.1190   -2.5970    0.8330 c         1 MOL      0.362285
     63 O10         7.5820   -3.6410    1.2080 o         1 MOL     -0.502347
     64 C21         5.9210   -1.7560    2.9470 c3        1 MOL     -0.362417
     65 C22         4.5030   -1.8980    2.4890 c         1 MOL      0.776988
     66 O11         4.2310   -2.1690    1.3270 o         1 MOL     -0.672394
     67 O12         3.5410   -1.7530    3.2970 o         1 MOL     -0.672394
     68 H28         6.0220   -0.1410    0.3570 hn        1 MOL      0.140060
     69 H29         7.8740   -1.3300    2.3240 h1        1 MOL      0.076451
     70 H30         5.8690   -0.9560    3.6860 hc        1 MOL      0.116489
     71 H31         6.3260   -2.6810    3.3560 hc        1 MOL      0.116489
     72 N7          6.8080   -2.3990   -0.4690 n         1 MOL     -0.207314
     73 C23         6.9230   -3.3200   -1.5730 c3        1 MOL     -0.243476
     74 C24         5.6510   -4.2010   -1.7050 c         1 MOL      0.623010
     75 O13         5.8210   -5.3110   -2.1720 o         1 MOL     -0.600892
     76 H32         6.3640   -1.5220   -0.7040 hn        1 MOL      0.291470
     77 H33         7.6880   -4.0790   -1.3940 h1        1 MOL      0.115486
     78 H34         7.0030   -2.7620   -2.5040 h1        1 MOL      0.115486
     79 N8          4.4690   -3.8200   -1.2800 n         1 MOL     -0.274533
     80 C25         3.2140   -4.4890   -1.2710 c3        1 MOL     -0.164919
     81 C26         2.0860   -3.4580   -1.2510 c         1 MOL      0.693772
     82 O14         2.2720   -2.3240   -0.8320 o         1 MOL     -0.582507
     83 C27         2.9870   -5.2960    0.0320 c3        1 MOL      0.568422
     84 C28         3.3760   -6.7280   -0.2470 c3        1 MOL     -0.415954
     85 O15         3.5440   -4.7210    1.2150 oh        1 MOL     -0.647306
     86 H35         4.5410   -2.8980   -0.8870 hn        1 MOL      0.151275
     87 H36         3.1780   -5.1500   -2.1310 h1        1 MOL      0.082778
     88 H37         1.9340   -5.2670    0.3040 h1        1 MOL     -0.048733
     89 H38         4.0350   -3.9600    0.9050 ho        1 MOL      0.427273
     90 H39         3.6040   -7.2650    0.6790 hc        1 MOL      0.094706
     91 H40         2.5600   -7.2920   -0.7070 hc        1 MOL      0.094706
     92 H41         4.3020   -6.7710   -0.8140 hc        1 MOL      0.094706
     93 N9          0.8930   -3.8440   -1.7400 n         1 MOL     -0.640845
     94 C29        -0.3070   -3.0460   -1.9480 c3        1 MOL      0.061013
     95 C30        -1.4800   -3.6600   -1.1350 c         1 MOL      0.518160
     96 O16        -1.7930   -4.7990   -1.3220 o         1 MOL     -0.539157
     97 C31        -0.6510   -2.9340   -3.4350 c3        1 MOL      0.255679
     98 C32         0.4430   -2.2210   -4.2090 c3        1 MOL     -0.109976
     99 C33        -1.9620   -2.2340   -3.8370 c3        1 MOL     -0.446806
    100 C34         0.7080   -0.7230   -3.8900 c3        1 MOL     -0.020632
    101 H42         0.8220   -4.7840   -2.0950 hn        1 MOL      0.313108
    102 H43        -0.1330   -2.0060   -1.7050 h1        1 MOL      0.022745
    103 H44        -0.7380   -3.9340   -3.8650 hc        1 MOL     -0.019057
    104 H45         0.2390   -2.3410   -5.2710 hc        1 MOL      0.012792
    105 H46         1.3880   -2.6940   -3.9360 hc        1 MOL      0.012792
    106 H47        -1.9520   -1.1380   -3.8520 hc        1 MOL      0.098219
    107 H48        -2.2080   -2.4490   -4.8770 hc        1 MOL      0.098219
    108 H49        -2.7460   -2.6140   -3.1830 hc        1 MOL      0.098219
    109 H50         1.5120   -0.2760   -4.4640 hc        1 MOL      0.034270
    110 H51        -0.2120   -0.1310   -3.9400 hc        1 MOL      0.034270
    111 H52         1.0420   -0.7450   -2.8440 hc        1 MOL      0.034270
    112 N10        -1.9550   -2.8730   -0.1840 n         1 MOL     -0.221519
    113 C35        -3.0950   -3.1370    0.6510 c3        1 MOL     -0.087168
    114 C36        -4.4160   -2.7360    0.0790 c         1 MOL      0.573174
    115 O17        -4.4140   -2.0790   -0.9510 o         1 MOL     -0.381322
    116 C37        -2.9520   -2.3500    1.9530 c3        1 MOL      0.247737
    117 C38        -2.0560   -3.0580    2.9530 c3        1 MOL     -0.407005
    118 O18        -2.5470   -1.0180    1.7560 oh        1 MOL     -0.582294
    119 H53        -1.4910   -1.9840   -0.0810 hn        1 MOL      0.169619
    120 H54        -3.1330   -4.1980    0.8920 h1        1 MOL      0.079354
    121 H55        -3.9520   -2.2730    2.3850 h1        1 MOL      0.014206
    122 H56        -1.6830   -0.9200    1.3400 ho        1 MOL      0.370465
    123 H57        -1.0640   -3.0970    2.5000 hc        1 MOL      0.124641
    124 H58        -2.1490   -2.5780    3.9360 hc        1 MOL      0.124641
    125 H59        -2.3070   -4.0960    3.1710 hc        1 MOL      0.124641
    126 N11        -5.6000   -3.0230    0.6480 n         1 MOL     -0.545497
    127 C39        -6.9130   -2.8430   -0.0410 c3        1 MOL     -0.027961
    128 C40        -7.2320   -1.3900   -0.2070 c         1 MOL      0.245851
    129 O19        -7.7640   -0.9790   -1.2220 o         1 MOL     -0.448699
    130 C41        -8.0380   -3.5370    0.8060 c3        1 MOL      0.442292
    131 C42        -9.4120   -3.6060    0.0540 c3        1 MOL     -0.535999
    132 O20        -7.6170   -4.8270    1.0480 oh        1 MOL     -0.577540
    133 H60        -5.6630   -3.3510    1.5950 hn        1 MOL      0.250751
    134 H61        -6.8870   -3.2060   -1.0690 h1        1 MOL      0.154204
    135 H62        -8.1670   -2.9920    1.7450 h1        1 MOL     -0.047736
    136 H63        -6.8920   -4.7530    1.6760 ho        1 MOL      0.371576
    137 H64       -10.1500   -3.9140    0.7960 hc        1 MOL      0.160129
    138 H65        -9.5260   -2.6730   -0.4860 hc        1 MOL      0.160129
    139 H66        -9.3440   -4.2970   -0.7890 hc        1 MOL      0.160129
    140 N12        -6.9570   -0.4970    0.7250 n         1 MOL     -0.218404
    141 C43        -7.1560    1.0210    0.6270 c3        1 MOL     -0.109553
    142 C44        -6.0830    1.6670   -0.2780 c         1 MOL      0.448967
    143 O21        -6.2740    2.7220   -0.8230 o         1 MOL     -0.528669
    144 C45        -7.0310    1.6940    1.9530 c3        1 MOL     -0.204852
    145 C46        -8.1180    1.1740    2.9160 c3        1 MOL      0.107233
    146 C47        -7.6970    1.8130    4.2950 c3        1 MOL      0.033283
    147 C48        -8.5970    1.1130    5.3590 c3        1 MOL     -0.017936
    148 N13       -10.0910    1.3070    5.1510 n4        1 MOL     -0.242667
    149 H67        -6.7350   -0.9350    1.6130 hn        1 MOL      0.253677
    150 H68        -8.0780    1.3000    0.1050 h1        1 MOL      0.138759
    151 H69        -7.1160    2.7860    1.8840 hc        1 MOL      0.092506
    152 H70        -6.0300    1.5400    2.3530 hc        1 MOL      0.092506
    153 H71        -8.0880    0.0850    2.9410 hc        1 MOL     -0.025885
    154 H72        -9.1230    1.5020    2.6500 hc        1 MOL     -0.025885
    155 H73        -7.7480    2.9050    4.3190 hc        1 MOL      0.042754
    156 H74        -6.6860    1.4630    4.4940 hc        1 MOL      0.042754
    157 H75        -8.1750    1.4800    6.2870 hx        1 MOL      0.080434
    158 H76        -8.3620    0.0580    5.2620 hx        1 MOL      0.080434
    159 H77       -10.6160    0.8700    5.8980 hn        1 MOL      0.254139
    160 H78       -10.3400    2.2850    5.0720 hn        1 MOL      0.254139
    161 H79       -10.4940    0.8720    4.3390 hn        1 MOL      0.254139
    162 N14        -5.0470    0.9390   -0.5840 n         1 MOL     -0.064791
    163 C49        -4.0900    1.3610   -1.6390 c3        1 MOL     -0.262419
    164 C50        -4.7050    1.0360   -3.0070 c         1 MOL      0.580821
    165 O22        -4.7170    1.9000   -3.9160 o         1 MOL     -0.555039
    166 C51        -2.6820    0.7440   -1.5160 c3        1 MOL     -0.036873
    167 C52        -1.9180    1.3530   -0.3550 c3        1 MOL      0.400307
    168 C53        -0.5610    0.7020    0.0400 c         1 MOL      0.518426
    169 O23        -0.4260   -0.5300    0.2630 o         1 MOL     -0.673717
    170 O24         0.5250    1.3660    0.1440 o         1 MOL     -0.673717
    171 H80        -5.0580    0.0150   -0.1940 hn        1 MOL      0.070829
    172 H81        -3.9790    2.4390   -1.6300 h1        1 MOL      0.126791
    173 H82        -2.1930    0.9600   -2.4650 hc        1 MOL      0.068139
    174 H83        -2.6280   -0.3480   -1.4380 hc        1 MOL      0.068139
    175 H84        -2.5680    1.2220    0.5100 hc        1 MOL     -0.129243
    176 H85        -1.7420    2.4190   -0.4720 hc        1 MOL     -0.129243
    177 N15        -5.2850   -0.1880   -3.1690 n         1 MOL     -0.184707
    178 C54        -5.9290   -0.6080   -4.3700 c3        1 MOL     -0.369160
    179 H86        -6.9530   -0.2340   -4.3830 h1        1 MOL      0.129246
    180 H87        -5.3880   -0.2120   -5.2300 h1        1 MOL      0.129246
    181 H88        -5.9390   -1.6970   -4.4170 h1        1 MOL      0.129246
    182 H89        -5.4940   -0.7430   -2.3420 hn        1 MOL      0.215989
    183 Ca1         1.9930   -0.6250    1.1990 Ca        1 MOL      1.760891
    184 O25         0.4320   -0.4060    3.4430 oh        1 MOL     -0.837381
    185 H90        -0.4570   -0.4500    3.7830 ho        1 MOL      0.382062
    186 H91         0.8260    0.3460    3.9010 ho        1 MOL      0.382062
    187 O26         1.3420   -3.0730    2.0640 oh        1 MOL     -0.837381
    188 H92         0.9760   -3.3500    2.8930 ho        1 MOL      0.382062
    189 H93         2.2030   -3.4860    2.0270 ho        1 MOL      0.382062
@<TRIPOS>BOND
     1    1    2 1   
     2    1    4 1   
     3    1    5 1   
     4    1    6 1   
     5    2    3 2   
     6    2    7 1   
     7    7    8 1   
     8    7   15 1   
     9    8    9 1   
    10    8   11 1   
    11    8   16 1   
    12    9   10 2   
    13    9   19 1   
    14   11   12 1   
    15   11   17 1   
    16   11   18 1   
    17   12   13 1   
    18   12   14 1   
    19   19   20 1   
    20   19   28 1   
    21   20   21 1   
    22   20   23 1   
    23   20   29 1   
    24   21   22 2   
    25   21   41 1   
    26   23   24 1   
    27   23   30 1   
    28   23   31 1   
    29   24   25 1   
    30   24   32 1   
    31   24   33 1   
    32   25   26 1   
    33   25   34 1   
    34   25   35 1   
    35   26   27 1   
    36   26   36 1   
    37   26   37 1   
    38   27   38 1   
    39   27   39 1   
    40   27   40 1   
    41   41   42 1   
    42   41   49 1   
    43   42   43 1   
    44   42   45 1   
    45   42   50 1   
    46   43   44 2   
    47   43   53 1   
    48   45   46 1   
    49   45   51 1   
    50   45   52 1   
    51   46   47 1   
    52   46   48 1   
    53   53   54 1   
    54   53   57 1   
    55   54   55 1   
    56   54   58 1   
    57   54   59 1   
    58   55   56 2   
    59   55   60 1   
    60   60   61 1   
    61   60   68 1   
    62   61   62 1   
    63   61   64 1   
    64   61   69 1   
    65   62   63 2   
    66   62   72 1   
    67   64   65 1   
    68   64   70 1   
    69   64   71 1   
    70   65   66 1   
    71   65   67 1   
    72   72   73 1   
    73   72   76 1   
    74   73   74 1   
    75   73   77 1   
    76   73   78 1   
    77   74   75 2   
    78   74   79 1   
    79   79   80 1   
    80   79   86 1   
    81   80   81 1   
    82   80   83 1   
    83   80   87 1   
    84   81   82 2   
    85   81   93 1   
    86   83   84 1   
    87   83   85 1   
    88   83   88 1   
    89   84   90 1   
    90   84   91 1   
    91   84   92 1   
    92   85   89 1   
    93   93   94 1   
    94   93  101 1   
    95   94   95 1   
    96   94   97 1   
    97   94  102 1   
    98   95   96 2   
    99   95  112 1   
   100   97   98 1   
   101   97   99 1   
   102   97  103 1   
   103   98  100 1   
   104   98  104 1   
   105   98  105 1   
   106   99  106 1   
   107   99  107 1   
   108   99  108 1   
   109  100  109 1   
   110  100  110 1   
   111  100  111 1   
   112  112  113 1   
   113  112  119 1   
   114  113  114 1   
   115  113  116 1   
   116  113  120 1   
   117  114  115 2   
   118  114  126 1   
   119  116  117 1   
   120  116  118 1   
   121  116  121 1   
   122  117  123 1   
   123  117  124 1   
   124  117  125 1   
   125  118  122 1   
   126  126  127 1   
   127  126  133 1   
   128  127  128 1   
   129  127  130 1   
   130  127  134 1   
   131  128  129 2   
   132  128  140 1   
   133  130  131 1   
   134  130  132 1   
   135  130  135 1   
   136  131  137 1   
   137  131  138 1   
   138  131  139 1   
   139  132  136 1   
   140  140  141 1   
   141  140  149 1   
   142  141  142 1   
   143  141  144 1   
   144  141  150 1   
   145  142  143 2   
   146  142  162 1   
   147  144  145 1   
   148  144  151 1   
   149  144  152 1   
   150  145  146 1   
   151  145  153 1   
   152  145  154 1   
   153  146  147 1   
   154  146  155 1   
   155  146  156 1   
   156  147  148 1   
   157  147  157 1   
   158  147  158 1   
   159  148  159 1   
   160  148  160 1   
   161  148  161 1   
   162  162  163 1   
   163  162  171 1   
   164  163  164 1   
   165  163  166 1   
   166  163  172 1   
   167  164  165 2   
   168  164  177 1   
   169  166  167 1   
   170  166  173 1   
   171  166  174 1   
   172  167  168 1   
   173  167  175 1   
   174  167  176 1   
   175  168  169 1   
   176  168  170 1   
   177  177  178 1   
   178  177  182 1   
   179  178  179 1   
   180  178  180 1   
   181  178  181 1   
   182  184  185 1   
   183  184  186 1   
   184  187  188 1   
   185  187  189 1   
@<TRIPOS>SUBSTRUCTURE
     1 MOL         1 TEMP              0 ****  ****    0 ROOT
