@<TRIPOS>MOLECULE
MOL
  189   185     1     0     0
SMALL
resp


@<TRIPOS>ATOM
      1 C1         -0.6200    4.2180    5.9200 c3        1 MOL     -0.266856
      2 C2         -0.9040    3.4660    4.6150 c         1 MOL      0.749334
      3 O1         -0.7770    2.2460    4.4600 o         1 MOL     -0.614711
      4 H1          0.4570    4.3390    6.0420 hc        1 MOL      0.064072
      5 H2         -1.0930    5.1990    5.8850 hc        1 MOL      0.064072
      6 H3         -1.0190    3.6520    6.7610 hc        1 MOL      0.064072
      7 N1         -1.2190    4.2500    3.5850 n         1 MOL     -0.609525
      8 C3         -2.0230    3.9000    2.3420 c3        1 MOL      0.284691
      9 C4         -1.9020    5.0320    1.2570 c         1 MOL      0.590743
     10 O2         -2.2000    6.2060    1.5030 o         1 MOL     -0.582364
     11 C5         -3.4600    3.5290    2.8050 c3        1 MOL     -0.315979
     12 C6         -4.2490    2.8560    1.7790 c         1 MOL      0.766355
     13 O3         -5.4930    2.7140    1.9710 o         1 MOL     -0.684336
     14 O4         -3.6470    2.3220    0.8090 o         1 MOL     -0.684336
     15 H4         -1.1290    5.2050    3.8970 hn        1 MOL      0.286071
     16 H5         -1.5250    3.0210    1.9410 h1        1 MOL     -0.039679
     17 H6         -3.9050    4.4820    3.0810 hc        1 MOL      0.058957
     18 H7         -3.5240    2.8960    3.6860 hc        1 MOL      0.058957
     19 N2         -1.6410    4.6300   -0.0400 n         1 MOL     -0.580338
     20 C7         -1.7290    5.5640   -1.2550 c3        1 MOL      0.133258
     21 C8         -2.8010    5.1240   -2.2780 c         1 MOL      0.511388
     22 O5         -3.0450    5.9120   -3.1810 o         1 MOL     -0.539336
     23 C9         -0.3160    5.6460   -1.9090 c3        1 MOL      0.119048
     24 C10        -0.1130    6.8580   -2.8110 c3        1 MOL     -0.008472
     25 C11         0.2460    4.3080   -2.6000 c3        1 MOL     -0.105700
     26 C12        -0.5220    8.2370   -2.2540 c3        1 MOL     -0.149956
     27 H8         -1.3480    3.6710   -0.1710 hn        1 MOL      0.247073
     28 H9         -1.9930    6.5600   -0.9170 h1        1 MOL      0.079072
     29 H10         0.3450    5.8410   -1.0700 hc        1 MOL     -0.001771
     30 H11        -0.7100    6.7320   -3.7110 hc        1 MOL     -0.001793
     31 H12         0.9370    6.8880   -3.1000 hc        1 MOL     -0.001793
     32 H13         1.2350    4.5080   -3.0040 hc        1 MOL      0.030921
     33 H14         0.3140    3.4720   -1.8980 hc        1 MOL      0.030921
     34 H15        -0.2880    4.1000   -3.5250 hc        1 MOL      0.030921
     35 H16         0.0420    8.5430   -1.3720 hc        1 MOL      0.021908
     36 H17        -0.1820    8.9230   -3.0230 hc        1 MOL      0.021908
     37 H18        -1.6010    8.2550   -2.0680 hc        1 MOL      0.021908
     38 N3         -3.4280    3.9450   -2.0790 n         1 MOL     -0.594745
     39 C13        -4.2230    3.3930   -3.2280 c3        1 MOL      0.078093
     40 C14        -5.5810    2.7190   -2.8410 c         1 MOL      0.438790
     41 O6         -6.3450    2.3410   -3.7050 o         1 MOL     -0.541185
     42 C15        -3.3170    2.2420   -4.0050 c3        1 MOL     -0.126285
     43 C16        -2.5730    1.3110   -3.0140 c         1 MOL      0.760584
     44 O7         -2.9960    1.1720   -1.8710 o         1 MOL     -0.710975
     45 O8         -1.5350    0.8370   -3.4050 o         1 MOL     -0.710975
     46 H19        -3.1280    3.4260   -1.2630 hn        1 MOL      0.461993
     47 H20        -4.4300    4.1930   -3.9340 h1        1 MOL      0.073989
     48 H21        -2.6530    2.6890   -4.7480 hc        1 MOL      0.021733
     49 H22        -4.0210    1.6630   -4.6020 hc        1 MOL      0.021733
     50 N4         -5.8470    2.6770   -1.5530 n         1 MOL     -0.193132
     51 C17        -7.1500    2.3280   -0.9980 c3        1 MOL     -0.046620
     52 C18        -7.6400    0.8850   -1.2160 c         1 MOL      0.387375
     53 O9         -8.8030    0.6160   -1.4340 o         1 MOL     -0.584689
     54 H23        -5.1380    2.7960   -0.8400 hn        1 MOL      0.100418
     55 H24        -7.8770    3.0240   -1.4130 h1        1 MOL      0.062684
     56 H25        -7.1530    2.4060    0.0890 h1        1 MOL      0.062684
     57 N5         -6.6820    0.0350   -1.4730 n         1 MOL     -0.014199
     58 C19        -6.8240   -1.3470   -2.0340 c3        1 MOL     -0.126662
     59 C20        -7.1700   -2.4140   -0.9590 c         1 MOL      0.539557
     60 O10        -7.7300   -3.4350   -1.1530 o         1 MOL     -0.549073
     61 C21        -5.5010   -1.6580   -2.7940 c3        1 MOL     -0.198582
     62 C22        -4.2460   -2.1150   -1.9500 c         1 MOL      0.698481
     63 O11        -4.1410   -1.5920   -0.8530 o         1 MOL     -0.662629
     64 O12        -3.3510   -2.7830   -2.5110 o         1 MOL     -0.662629
     65 H26        -5.7490    0.3930   -1.3060 hn        1 MOL      0.101518
     66 H27        -7.5630   -1.3120   -2.8350 h1        1 MOL      0.114109
     67 H28        -5.2510   -0.8560   -3.4900 hc        1 MOL      0.053899
     68 H29        -5.8040   -2.5240   -3.3820 hc        1 MOL      0.053899
     69 N6         -6.7900   -2.0130    0.2880 n         1 MOL     -0.342724
     70 C23        -6.9940   -2.8530    1.4700 c3        1 MOL     -0.274276
     71 C24        -5.7920   -3.7330    1.8210 c         1 MOL      0.490561
     72 O13        -5.8530   -4.5540    2.6970 o         1 MOL     -0.601900
     73 H30        -6.3050   -1.1330    0.4190 hn        1 MOL      0.286979
     74 H31        -7.8420   -3.5010    1.2420 h1        1 MOL      0.131179
     75 H32        -7.1190   -2.3150    2.4040 h1        1 MOL      0.131179
     76 N7         -4.6740   -3.5520    1.1170 n         1 MOL      0.035570
     77 C25        -3.4160   -4.2720    1.2930 c3        1 MOL     -0.174279
     78 C26        -2.2450   -3.3760    1.5640 c         1 MOL      0.464687
     79 O14        -2.4150   -2.1420    1.6070 o         1 MOL     -0.554907
     80 C27        -3.2460   -5.2590    0.0690 c3        1 MOL      0.246306
     81 C28        -4.3730   -6.2620   -0.2170 c3        1 MOL     -0.261718
     82 C29        -4.0040   -7.3380   -1.2000 c         1 MOL      0.631108
     83 N8         -4.6150   -7.4240   -2.3670 n         1 MOL     -0.776184
     84 O15        -2.9960   -7.9690   -0.9910 o         1 MOL     -0.564664
     85 H33        -4.5980   -2.8870    0.3630 hn        1 MOL      0.123596
     86 H34        -3.5730   -4.9560    2.1270 h1        1 MOL      0.072143
     87 H35        -2.3490   -5.8320    0.2590 hc        1 MOL     -0.032936
     88 H36        -3.1520   -4.5830   -0.7770 hc        1 MOL     -0.032936
     89 H37        -5.2430   -5.6930   -0.5550 hc        1 MOL      0.055783
     90 H38        -4.7420   -6.6260    0.7390 hc        1 MOL      0.055783
     91 H39        -5.3080   -6.7150   -2.5720 hn        1 MOL      0.360920
     92 H40        -4.3360   -8.1070   -3.0550 hn        1 MOL      0.360920
     93 N9         -1.0900   -3.9760    1.8540 n         1 MOL     -0.485752
     94 C30         0.1070   -3.2220    2.2200 c3        1 MOL      0.002038
     95 C31         1.2670   -3.5310    1.2440 c         1 MOL      0.612587
     96 O16         1.7400   -4.6480    1.2950 o         1 MOL     -0.592677
     97 C32         0.6980   -3.3590    3.6460 c3        1 MOL      0.476215
     98 C33         1.7990   -2.3240    3.8910 c3        1 MOL     -0.458073
     99 C34        -0.3160   -3.0540    4.6540 c3        1 MOL     -0.458073
    100 H41        -1.1010   -4.9810    1.8460 hn        1 MOL      0.325814
    101 H42        -0.0640   -2.1580    2.0540 h1        1 MOL      0.114271
    102 H43         1.0080   -4.3940    3.7580 hc        1 MOL     -0.072525
    103 H44         2.7710   -2.5950    3.4780 hc        1 MOL      0.091150
    104 H45         1.5740   -1.3220    3.5200 hc        1 MOL      0.091150
    105 H46         1.9870   -2.4770    4.9530 hc        1 MOL      0.091150
    106 H47         0.0160   -3.1790    5.6850 hc        1 MOL      0.091150
    107 H48        -0.6160   -2.0070    4.5820 hc        1 MOL      0.091150
    108 H49        -1.2060   -3.6420    4.4600 hc        1 MOL      0.091150
    109 N10         1.6850   -2.5490    0.4370 n         1 MOL     -0.629590
    110 C35         2.9540   -2.6220   -0.2860 c3        1 MOL      0.318865
    111 C36         4.2210   -2.2140    0.5780 c         1 MOL      0.032087
    112 O17         4.1930   -1.3830    1.4950 o         1 MOL     -0.235976
    113 C37         2.7840   -1.7930   -1.5260 c3        1 MOL     -0.464642
    114 C38         4.0950   -1.7480   -2.3880 c         1 MOL      0.540782
    115 N11         4.2040   -2.7040   -3.3070 n         1 MOL     -0.633108
    116 O18         4.9850   -0.8950   -2.2980 o         1 MOL     -0.364775
    117 H50         1.2310   -1.6420    0.5070 hn        1 MOL      0.406336
    118 H51         3.2070   -3.6330   -0.5970 h1        1 MOL      0.048206
    119 H52         2.4640   -0.7900   -1.2510 hc        1 MOL      0.185739
    120 H53         2.0050   -2.1910   -2.1780 hc        1 MOL      0.185739
    121 H54         3.7160   -3.5650   -3.0900 hn        1 MOL      0.287984
    122 H55         4.9230   -2.7570   -4.0130 hn        1 MOL      0.287984
    123 N12         5.3740   -2.7520    0.2580 n         1 MOL      0.004911
    124 C39         6.6910   -2.2880    0.7690 c3        1 MOL      0.007545
    125 C40         6.9830   -0.7580    0.8510 c         1 MOL      0.332903
    126 O19         7.5700   -0.2950    1.8160 o         1 MOL     -0.543143
    127 C41         7.7430   -3.1800    0.0240 c3        1 MOL     -0.142302
    128 C42         7.6910   -3.0650   -1.5050 ca        1 MOL     -0.054668
    129 C43         7.0400   -3.9910   -2.2640 ca        1 MOL     -0.054649
    130 C44         8.4330   -2.0000   -2.0970 ca        1 MOL     -0.054649
    131 C45         7.0460   -3.8680   -3.6270 ca        1 MOL     -0.357286
    132 C46         8.3560   -1.8460   -3.4670 ca        1 MOL     -0.357286
    133 C47         7.6590   -2.7870   -4.2240 ca        1 MOL      0.411656
    134 O20         7.4540   -2.6420   -5.5960 oh        1 MOL     -0.451023
    135 H56         5.3340   -3.5000   -0.4270 hn        1 MOL      0.081971
    136 H57         6.6910   -2.6400    1.7960 h1        1 MOL      0.060033
    137 H58         7.6410   -4.2310    0.3120 hc        1 MOL      0.068478
    138 H59         8.7480   -2.8490    0.2770 hc        1 MOL      0.068478
    139 H60         6.6070   -4.8650   -1.8140 ha        1 MOL      0.126688
    140 H61         8.9930   -1.2030   -1.6230 ha        1 MOL      0.126688
    141 H62         6.4890   -4.6140   -4.1640 ha        1 MOL      0.160664
    142 H63         8.7990   -1.0220   -3.9990 ha        1 MOL      0.160664
    143 H64         7.2600   -3.5120   -5.9480 ho        1 MOL      0.298236
    144 N13         6.4400    0.0920    0.0050 n         1 MOL      0.192754
    145 C48         6.6110    1.5060    0.0580 c3        1 MOL     -0.128753
    146 C49         5.7340    2.1810    1.1070 c         1 MOL      0.325548
    147 O21         6.1670    3.2060    1.6630 o         1 MOL     -0.497275
    148 C50         6.2150    2.1410   -1.2590 c3        1 MOL      0.185508
    149 C51         7.2730    2.0960   -2.3430 c3        1 MOL     -0.521510
    150 C52         8.5610    2.9000   -1.9670 c         1 MOL      0.900561
    151 O22         9.2660    2.5480   -1.0000 o         1 MOL     -0.764058
    152 O23         8.9440    3.8140   -2.7120 o         1 MOL     -0.764058
    153 H65         5.8230   -0.2700   -0.7030 hn        1 MOL     -0.044798
    154 H66         7.6820    1.6810    0.1950 h1        1 MOL      0.137572
    155 H67         6.0680    3.2050   -1.1130 hc        1 MOL     -0.033782
    156 H68         5.3370    1.6150   -1.6560 hc        1 MOL     -0.033782
    157 H69         6.7180    2.5510   -3.1660 hc        1 MOL      0.108363
    158 H70         7.4980    1.0420   -2.5090 hc        1 MOL      0.108363
    159 N14         4.5810    1.5810    1.5380 n         1 MOL     -0.236859
    160 C53         3.8070    2.0680    2.7030 c3        1 MOL      0.000640
    161 C54         4.2940    1.4290    4.0040 c         1 MOL      0.469823
    162 O24         4.3290    2.1260    5.0500 o         1 MOL     -0.583209
    163 C55         2.3320    1.5740    2.4720 c3        1 MOL      0.063572
    164 C56         1.7830    2.1520    1.1330 c3        1 MOL     -0.051143
    165 C57         0.4510    1.3800    0.8000 c         1 MOL      0.978115
    166 O25        -0.3460    1.9390   -0.0050 o         1 MOL     -0.819730
    167 O26         0.2820    0.1610    0.9770 o         1 MOL     -0.819730
    168 H71         4.3690    0.6610    1.1770 hn        1 MOL      0.216961
    169 H72         3.7120    3.1370    2.8790 h1        1 MOL      0.069784
    170 H73         1.7530    1.7800    3.3650 hc        1 MOL     -0.019427
    171 H74         2.4010    0.4880    2.3550 hc        1 MOL     -0.019427
    172 H75         2.4320    2.0110    0.2710 hc        1 MOL     -0.023274
    173 H76         1.5770    3.2040    1.3210 hc        1 MOL     -0.023274
    174 N15         4.6380    0.1250    3.9410 n         1 MOL     -0.094897
    175 C58         5.2450   -0.5570    5.0540 c3        1 MOL     -0.217611
    176 H77         6.2920   -0.7620    4.8270 h1        1 MOL      0.075008
    177 H78         5.1830    0.0700    5.9430 h1        1 MOL      0.075008
    178 H79         4.7230   -1.4970    5.2350 h1        1 MOL      0.075008
    179 H80         4.5580   -0.3260    3.0390 hn        1 MOL      0.105210
    180 Ca1        -2.4280    0.0830    0.3350 Ca        1 MOL      1.702274
    181 O27        -1.8880    0.3920    2.9420 oh        1 MOL     -0.831828
    182 O28        -1.1880   -1.5570   -1.3660 oh        1 MOL     -0.831828
    183 H81        -1.3790    0.8530    3.6150 ho        1 MOL      0.390615
    184 H82        -0.8600   -1.2640   -2.2170 ho        1 MOL      0.390615
    185 H83        -2.3420   -0.3020    3.4230 ho        1 MOL      0.390615
    186 H84        -1.9440   -2.1080   -1.5800 ho        1 MOL      0.390615
    187 O29        -4.8530   -0.4850    2.0200 oh        1 MOL     -0.831828
    188 H85        -4.5090   -1.0140    2.7390 ho        1 MOL      0.390615
    189 H86        -5.1060    0.3490    2.4350 ho        1 MOL      0.390615
@<TRIPOS>BOND
     1    1    2 1   
     2    1    4 1   
     3    1    5 1   
     4    1    6 1   
     5    2    3 2   
     6    2    7 1   
     7    7    8 1   
     8    7   15 1   
     9    8    9 1   
    10    8   11 1   
    11    8   16 1   
    12    9   10 2   
    13    9   19 1   
    14   11   12 1   
    15   11   17 1   
    16   11   18 1   
    17   12   13 1   
    18   12   14 1   
    19   19   20 1   
    20   19   27 1   
    21   20   21 1   
    22   20   23 1   
    23   20   28 1   
    24   21   22 2   
    25   21   38 1   
    26   23   24 1   
    27   23   25 1   
    28   23   29 1   
    29   24   26 1   
    30   24   30 1   
    31   24   31 1   
    32   25   32 1   
    33   25   33 1   
    34   25   34 1   
    35   26   35 1   
    36   26   36 1   
    37   26   37 1   
    38   38   39 1   
    39   38   46 1   
    40   39   40 1   
    41   39   42 1   
    42   39   47 1   
    43   40   41 2   
    44   40   50 1   
    45   42   43 1   
    46   42   48 1   
    47   42   49 1   
    48   43   44 1   
    49   43   45 1   
    50   50   51 1   
    51   50   54 1   
    52   51   52 1   
    53   51   55 1   
    54   51   56 1   
    55   52   53 2   
    56   52   57 1   
    57   57   58 1   
    58   57   65 1   
    59   58   59 1   
    60   58   61 1   
    61   58   66 1   
    62   59   60 2   
    63   59   69 1   
    64   61   62 1   
    65   61   67 1   
    66   61   68 1   
    67   62   63 1   
    68   62   64 1   
    69   69   70 1   
    70   69   73 1   
    71   70   71 1   
    72   70   74 1   
    73   70   75 1   
    74   71   72 2   
    75   71   76 1   
    76   76   77 1   
    77   76   85 1   
    78   77   78 1   
    79   77   80 1   
    80   77   86 1   
    81   78   79 2   
    82   78   93 1   
    83   80   81 1   
    84   80   87 1   
    85   80   88 1   
    86   81   82 1   
    87   81   89 1   
    88   81   90 1   
    89   82   83 1   
    90   82   84 2   
    91   83   91 1   
    92   83   92 1   
    93   93   94 1   
    94   93  100 1   
    95   94   95 1   
    96   94   97 1   
    97   94  101 1   
    98   95   96 2   
    99   95  109 1   
   100   97   98 1   
   101   97   99 1   
   102   97  102 1   
   103   98  103 1   
   104   98  104 1   
   105   98  105 1   
   106   99  106 1   
   107   99  107 1   
   108   99  108 1   
   109  109  110 1   
   110  109  117 1   
   111  110  111 1   
   112  110  113 1   
   113  110  118 1   
   114  111  112 2   
   115  111  123 1   
   116  113  114 1   
   117  113  119 1   
   118  113  120 1   
   119  114  115 1   
   120  114  116 2   
   121  115  121 1   
   122  115  122 1   
   123  123  124 1   
   124  123  135 1   
   125  124  125 1   
   126  124  127 1   
   127  124  136 1   
   128  125  126 2   
   129  125  144 1   
   130  127  128 1   
   131  127  137 1   
   132  127  138 1   
   133  128  129 ar  
   134  128  130 ar  
   135  129  131 ar  
   136  129  139 1   
   137  130  132 ar  
   138  130  140 1   
   139  131  133 ar  
   140  131  141 1   
   141  132  133 ar  
   142  132  142 1   
   143  133  134 1   
   144  134  143 1   
   145  144  145 1   
   146  144  153 1   
   147  145  146 1   
   148  145  148 1   
   149  145  154 1   
   150  146  147 2   
   151  146  159 1   
   152  148  149 1   
   153  148  155 1   
   154  148  156 1   
   155  149  150 1   
   156  149  157 1   
   157  149  158 1   
   158  150  151 1   
   159  150  152 1   
   160  159  160 1   
   161  159  168 1   
   162  160  161 1   
   163  160  163 1   
   164  160  169 1   
   165  161  162 2   
   166  161  174 1   
   167  163  164 1   
   168  163  170 1   
   169  163  171 1   
   170  164  165 1   
   171  164  172 1   
   172  164  173 1   
   173  165  166 1   
   174  165  167 1   
   175  174  175 1   
   176  174  179 1   
   177  175  176 1   
   178  175  177 1   
   179  175  178 1   
   180  181  183 1   
   181  181  185 1   
   182  182  184 1   
   183  182  186 1   
   184  187  188 1   
   185  187  189 1   
@<TRIPOS>SUBSTRUCTURE
     1 MOL         1 TEMP              0 ****  ****    0 ROOT
