@<TRIPOS>MOLECULE
MOL
  176   174     1     0     0
SMALL
resp


@<TRIPOS>ATOM
      1 C1          0.8030    3.5760    6.4220 c3        1 MOL     -0.372858
      2 C2          0.7800    2.9190    5.0700 c         1 MOL      0.731164
      3 O1          1.8200    2.7650    4.4520 o         1 MOL     -0.569764
      4 H1          1.4870    4.4250    6.4020 hc        1 MOL      0.097429
      5 H2         -0.1990    3.9240    6.6740 hc        1 MOL      0.097429
      6 H3          1.1370    2.8580    7.1700 hc        1 MOL      0.097429
      7 N1         -0.3760    2.5710    4.4820 n         1 MOL     -0.563798
      8 C3         -0.5840    2.2780    3.0800 c3        1 MOL     -0.045678
      9 C4         -0.6010    3.6330    2.2860 c         1 MOL      0.677017
     10 O2         -0.9760    4.6470    2.8450 o         1 MOL     -0.528601
     11 C5         -1.8720    1.5130    3.0640 c3        1 MOL     -0.372923
     12 C6         -2.3740    1.0630    1.7070 c         1 MOL      1.080171
     13 O3         -2.3060    1.6920    0.6560 o         1 MOL     -0.903961
     14 O4         -2.8120   -0.1320    1.5850 o         1 MOL     -0.903961
     15 H4         -1.2060    2.4990    5.0510 hn        1 MOL      0.302660
     16 H5          0.2830    1.6590    2.8390 h1        1 MOL      0.098879
     17 H6         -2.6610    2.1010    3.5310 hc        1 MOL      0.105254
     18 H7         -1.8880    0.6320    3.6910 hc        1 MOL      0.105254
     19 N2         -0.1680    3.5830    0.9930 n         1 MOL     -0.563142
     20 C7         -0.0560    4.8100    0.1550 c3        1 MOL     -0.037625
     21 C8         -1.4000    5.3480   -0.4020 c         1 MOL      0.444970
     22 O5         -1.6030    6.5690   -0.5350 o         1 MOL     -0.578215
     23 C9          1.0370    4.6360   -0.9400 c3        1 MOL      0.214012
     24 C10         1.6370    5.9260   -1.4600 c3        1 MOL      0.054997
     25 C11         2.8470    5.6720   -2.3550 c3        1 MOL      0.072966
     26 C12         3.2890    6.9630   -3.1360 c3        1 MOL     -0.154941
     27 N3          2.4190    7.2520   -4.2640 n4        1 MOL     -0.417815
     28 H8          0.1310    2.6900    0.6440 hn        1 MOL      0.361725
     29 H9          0.2850    5.6590    0.7440 h1        1 MOL      0.097499
     30 H10         0.5250    4.1900   -1.8010 hc        1 MOL     -0.032594
     31 H11         1.8860    4.1410   -0.4550 hc        1 MOL     -0.032594
     32 H12         1.9340    6.5540   -0.6240 hc        1 MOL     -0.029504
     33 H13         0.9120    6.4930   -2.0340 hc        1 MOL     -0.029504
     34 H14         2.5390    4.9090   -3.0660 hc        1 MOL      0.016178
     35 H15         3.6510    5.2250   -1.7680 hc        1 MOL      0.016178
     36 H16         4.3340    6.9980   -3.4230 hx        1 MOL      0.145994
     37 H17         3.0750    7.8020   -2.4620 hx        1 MOL      0.145994
     38 H18         3.0080    7.7140   -4.9540 hn        1 MOL      0.350266
     39 H19         2.1100    6.3850   -4.6800 hn        1 MOL      0.350266
     40 H20         1.6040    7.7880   -4.0080 hn        1 MOL      0.350266
     41 N4         -2.2840    4.4110   -0.6040 n         1 MOL     -0.253458
     42 C13        -3.5950    4.6500   -1.2280 c3        1 MOL      0.142355
     43 C14        -4.7410    4.2780   -0.3220 c         1 MOL      0.469235
     44 O6         -5.8680    4.7080   -0.6590 o         1 MOL     -0.551593
     45 C15        -3.5840    3.8610   -2.5640 c3        1 MOL     -0.408630
     46 C16        -3.2140    2.3540   -2.4490 c         1 MOL      0.915531
     47 O7         -2.0960    1.9940   -2.8650 o         1 MOL     -0.816464
     48 O8         -3.9630    1.5740   -1.8890 o         1 MOL     -0.816464
     49 H21        -2.0560    3.5100   -0.2050 hn        1 MOL      0.292320
     50 H22        -3.7430    5.7120   -1.4170 h1        1 MOL      0.075278
     51 H23        -2.8060    4.2410   -3.2430 hc        1 MOL      0.093679
     52 H24        -4.5790    3.9630   -3.0030 hc        1 MOL      0.093679
     53 N5         -4.5920    3.3740    0.6660 n         1 MOL     -0.327262
     54 C17        -5.8120    2.9660    1.4170 c3        1 MOL     -0.023093
     55 C18        -6.5350    1.6590    0.9810 c         1 MOL      0.501481
     56 O9         -7.5010    1.3730    1.6760 o         1 MOL     -0.559100
     57 H25        -3.8010    2.7550    0.6340 hn        1 MOL      0.129352
     58 H26        -6.6320    3.6770    1.4160 h1        1 MOL      0.073314
     59 H27        -5.4210    2.7790    2.4230 h1        1 MOL      0.073314
     60 N6         -6.1330    0.9940   -0.1130 n         1 MOL     -0.208093
     61 C19        -6.7710   -0.1910   -0.5570 c3        1 MOL     -0.133799
     62 C20        -6.8110   -1.4140    0.3360 c         1 MOL      0.554853
     63 O10        -7.6730   -2.2660    0.2190 o         1 MOL     -0.526324
     64 C21        -6.4060   -0.5790   -1.9890 c3        1 MOL     -0.086868
     65 C22        -4.9470   -1.2340   -2.1320 c         1 MOL      0.441669
     66 N7         -4.7770   -1.7100   -3.3250 n         1 MOL     -0.535764
     67 O11        -4.1950   -1.4080   -1.1970 o         1 MOL     -0.446176
     68 H28        -5.3620    1.3190   -0.6840 hn        1 MOL      0.260419
     69 H29        -7.8280    0.0200   -0.6900 h1        1 MOL      0.102569
     70 H30        -6.6030    0.2220   -2.7090 hc        1 MOL      0.060424
     71 H31        -7.1430   -1.3300   -2.2830 hc        1 MOL      0.060424
     72 H32        -5.5030   -1.5460   -4.0150 hn        1 MOL      0.298538
     73 H33        -3.8510   -2.0840   -3.4620 hn        1 MOL      0.298538
     74 N8         -5.8560   -1.5260    1.3780 n         1 MOL     -0.378927
     75 C23        -5.8970   -2.6210    2.4120 c3        1 MOL     -0.077136
     76 C24        -4.7020   -3.5610    2.4390 c         1 MOL      0.435211
     77 O12        -4.7310   -4.5710    3.1550 o         1 MOL     -0.563435
     78 H34        -5.2660   -0.7380    1.5670 hn        1 MOL      0.293139
     79 H35        -6.7790   -3.2320    2.2210 h1        1 MOL      0.095043
     80 H36        -6.0320   -2.2570    3.4350 h1        1 MOL      0.095043
     81 N9         -3.7260   -3.3560    1.5540 n         1 MOL     -0.080943
     82 C25        -2.4950   -4.1140    1.5230 c3        1 MOL     -0.043965
     83 C26        -1.3020   -3.3790    0.8750 c         1 MOL      0.450698
     84 O13        -1.4730   -2.5250    0.0100 o         1 MOL     -0.526066
     85 C27        -2.6850   -5.4180    0.6630 c3        1 MOL     -0.023414
     86 C28        -3.0560   -5.2470   -0.8210 ca        1 MOL      0.005864
     87 C29        -2.0000   -5.0200   -1.7670 ca        1 MOL     -0.170127
     88 C30        -4.4570   -5.2710   -1.1720 ca        1 MOL     -0.170127
     89 C31        -2.4190   -4.7900   -3.0980 ca        1 MOL     -0.226978
     90 C32        -4.8110   -4.8900   -2.4620 ca        1 MOL     -0.226978
     91 C33        -3.7900   -4.6130   -3.4040 ca        1 MOL      0.316893
     92 O14        -4.1780   -4.2540   -4.6520 oh        1 MOL     -0.552792
     93 H37        -3.7930   -2.5860    0.9090 hn        1 MOL      0.142069
     94 H38        -2.2340   -4.3820    2.5520 h1        1 MOL      0.079250
     95 H39        -3.2600   -6.1840    1.1830 hc        1 MOL      0.033788
     96 H40        -1.7050   -5.8860    0.5440 hc        1 MOL      0.033788
     97 H41        -0.9690   -4.9690   -1.4510 ha        1 MOL      0.172286
     98 H42        -5.1760   -5.5410   -0.4170 ha        1 MOL      0.172286
     99 H43        -1.6480   -4.6470   -3.8340 ha        1 MOL      0.128643
    100 H44        -5.8610   -4.8480   -2.7070 ha        1 MOL      0.128643
    101 H45        -5.1300   -4.3030   -4.7430 ho        1 MOL      0.401354
    102 N10        -0.1100   -3.7540    1.3890 n         1 MOL     -0.411763
    103 C34         1.1240   -2.9940    1.1110 c3        1 MOL     -0.166943
    104 C35         2.2110   -3.8480    0.4370 c         1 MOL      0.576985
    105 O15         2.3310   -5.0400    0.7230 o         1 MOL     -0.555546
    106 C36         1.6880   -2.3510    2.4270 c3        1 MOL      0.181185
    107 C37         2.0420   -3.3930    3.5200 c3        1 MOL     -0.190723
    108 C38         0.7050   -1.2980    2.9030 c3        1 MOL     -0.200787
    109 C39         2.7330   -2.7570    4.6890 c3        1 MOL     -0.164650
    110 H46        -0.0950   -4.6360    1.8710 hn        1 MOL      0.279745
    111 H47         0.7880   -2.2550    0.3830 h1        1 MOL      0.178965
    112 H48         2.6100   -1.9010    2.0790 hc        1 MOL     -0.014721
    113 H49         2.8150   -4.0090    3.0690 hc        1 MOL      0.091385
    114 H50         1.1530   -3.9390    3.8360 hc        1 MOL      0.091385
    115 H51         0.4130   -0.6710    2.0520 hc        1 MOL      0.081003
    116 H52        -0.1480   -1.6930    3.4520 hc        1 MOL      0.081003
    117 H53         1.2260   -0.6750    3.6330 hc        1 MOL      0.081003
    118 H54         1.9830   -2.5330    5.4490 hc        1 MOL      0.046942
    119 H55         3.3470   -3.5280    5.1480 hc        1 MOL      0.046942
    120 H56         3.3240   -1.8710    4.4400 hc        1 MOL      0.046942
    121 N11         3.0630   -3.2000   -0.3420 n         1 MOL     -0.453710
    122 C40         4.3260   -3.6940   -0.8730 c3        1 MOL      0.230253
    123 C41         5.5030   -3.0690   -0.1380 c         1 MOL      0.356017
    124 O16         5.2780   -2.1050    0.6750 o         1 MOL     -0.339896
    125 C42         4.4130   -3.4310   -2.3920 c3        1 MOL     -0.143306
    126 O17         4.7090   -2.0420   -2.6550 oh        1 MOL     -0.467672
    127 H57         2.8970   -2.2000   -0.4130 hn        1 MOL      0.254256
    128 H58         4.2740   -4.7820   -0.7590 h1        1 MOL      0.051743
    129 H59         3.5230   -3.8140   -2.8950 h1        1 MOL      0.096168
    130 H60         5.2790   -3.9780   -2.7730 h1        1 MOL      0.096168
    131 H61         4.0960   -1.7900   -3.3430 ho        1 MOL      0.400492
    132 N12         6.7440   -3.5310   -0.3550 n         1 MOL     -0.500476
    133 C43         7.9190   -2.7760    0.1190 c3        1 MOL      0.224231
    134 C44         8.1030   -1.3560   -0.4580 c         1 MOL      0.578154
    135 O18         8.5710   -0.4860    0.2520 o         1 MOL     -0.503776
    136 C45         9.2000   -3.5320    0.0470 c3        1 MOL     -0.386151
    137 H62         6.9180   -4.2650   -1.0260 hn        1 MOL      0.310822
    138 H63         7.7330   -2.7230    1.1870 h1        1 MOL      0.090257
    139 H64         8.9600   -4.5600   -0.2310 hc        1 MOL      0.111182
    140 H65         9.8690   -3.1460   -0.7230 hc        1 MOL      0.111182
    141 H66         9.6790   -3.3900    1.0120 hc        1 MOL      0.111182
    142 N13         7.7890   -1.1770   -1.7710 n         1 MOL     -0.642965
    143 C46         7.5430    0.1660   -2.4200 c3        1 MOL      0.321783
    144 C47         6.6960    1.0760   -1.4910 c         1 MOL      0.220619
    145 O19         6.9920    2.2600   -1.2310 o         1 MOL     -0.522726
    146 C48         7.0250    0.1220   -3.8790 c3        1 MOL     -0.359900
    147 H67         7.3660   -1.9420   -2.2830 hn        1 MOL      0.316611
    148 H68         8.4750    0.7090   -2.5320 h1        1 MOL      0.051033
    149 H69         7.6420   -0.5800   -4.4350 hc        1 MOL      0.092184
    150 H70         5.9760   -0.1670   -3.9440 hc        1 MOL      0.092184
    151 H71         7.1880    1.1470   -4.2360 hc        1 MOL      0.092184
    152 N14         5.7020    0.5350   -0.8860 n         1 MOL      0.100499
    153 C49         4.8300    1.2290    0.0380 c3        1 MOL     -0.166372
    154 C50         5.5240    1.4470    1.4430 c         1 MOL      0.439822
    155 O20         5.2790    2.5480    2.0200 o         1 MOL     -0.535369
    156 C51         3.4550    0.6320    0.1660 c3        1 MOL      0.467637
    157 C52         2.6900    0.8010   -1.1060 c3        1 MOL      0.073244
    158 C53         1.2500    0.4090   -0.8860 c         1 MOL      0.696692
    159 O21         0.3920    1.1140   -0.2960 o         1 MOL     -0.817159
    160 O22         0.8120   -0.7300   -1.2860 o         1 MOL     -0.817159
    161 H72         5.3920   -0.3590   -1.2600 hn        1 MOL      0.077442
    162 H73         4.7110    2.2650   -0.3000 h1        1 MOL      0.094837
    163 H74         2.7970    1.0600    0.9230 hc        1 MOL     -0.112417
    164 H75         3.5370   -0.4220    0.4540 hc        1 MOL     -0.112417
    165 H76         3.2130    0.1780   -1.8210 hc        1 MOL     -0.123738
    166 H77         2.8140    1.8440   -1.4040 hc        1 MOL     -0.123738
    167 N15         6.1800    0.4000    1.9090 n         1 MOL      0.012564
    168 C54         6.7810    0.4150    3.2160 c3        1 MOL     -0.427881
    169 H78         7.4890    1.2410    3.2800 h1        1 MOL      0.145550
    170 H79         6.0060    0.5410    3.9710 h1        1 MOL      0.145550
    171 H80         7.3050   -0.5260    3.3860 h1        1 MOL      0.145550
    172 H81         6.1600   -0.4430    1.3510 hn        1 MOL      0.013734
    173 Ca1        -1.7980   -0.0540   -1.1880 Ca        1 MOL      1.818097
    174 O23        -1.8250   -1.3970   -3.4310 oh        1 MOL     -0.933653
    175 H82        -1.0780   -1.9840   -3.3430 ho        1 MOL      0.454348
    176 H83        -1.8620   -1.1680   -4.3640 ho        1 MOL      0.454348
@<TRIPOS>BOND
     1    1    2 1   
     2    1    4 1   
     3    1    5 1   
     4    1    6 1   
     5    2    3 2   
     6    2    7 1   
     7    7    8 1   
     8    7   15 1   
     9    8    9 1   
    10    8   11 1   
    11    8   16 1   
    12    9   10 2   
    13    9   19 1   
    14   11   12 1   
    15   11   17 1   
    16   11   18 1   
    17   12   13 1   
    18   12   14 1   
    19   19   20 1   
    20   19   28 1   
    21   20   21 1   
    22   20   23 1   
    23   20   29 1   
    24   21   22 2   
    25   21   41 1   
    26   23   24 1   
    27   23   30 1   
    28   23   31 1   
    29   24   25 1   
    30   24   32 1   
    31   24   33 1   
    32   25   26 1   
    33   25   34 1   
    34   25   35 1   
    35   26   27 1   
    36   26   36 1   
    37   26   37 1   
    38   27   38 1   
    39   27   39 1   
    40   27   40 1   
    41   41   42 1   
    42   41   49 1   
    43   42   43 1   
    44   42   45 1   
    45   42   50 1   
    46   43   44 2   
    47   43   53 1   
    48   45   46 1   
    49   45   51 1   
    50   45   52 1   
    51   46   47 1   
    52   46   48 1   
    53   53   54 1   
    54   53   57 1   
    55   54   55 1   
    56   54   58 1   
    57   54   59 1   
    58   55   56 2   
    59   55   60 1   
    60   60   61 1   
    61   60   68 1   
    62   61   62 1   
    63   61   64 1   
    64   61   69 1   
    65   62   63 2   
    66   62   74 1   
    67   64   65 1   
    68   64   70 1   
    69   64   71 1   
    70   65   66 1   
    71   65   67 2   
    72   66   72 1   
    73   66   73 1   
    74   74   75 1   
    75   74   78 1   
    76   75   76 1   
    77   75   79 1   
    78   75   80 1   
    79   76   77 2   
    80   76   81 1   
    81   81   82 1   
    82   81   93 1   
    83   82   83 1   
    84   82   85 1   
    85   82   94 1   
    86   83   84 2   
    87   83  102 1   
    88   85   86 1   
    89   85   95 1   
    90   85   96 1   
    91   86   87 ar  
    92   86   88 ar  
    93   87   89 ar  
    94   87   97 1   
    95   88   90 ar  
    96   88   98 1   
    97   89   91 ar  
    98   89   99 1   
    99   90   91 ar  
   100   90  100 1   
   101   91   92 1   
   102   92  101 1   
   103  102  103 1   
   104  102  110 1   
   105  103  104 1   
   106  103  106 1   
   107  103  111 1   
   108  104  105 2   
   109  104  121 1   
   110  106  107 1   
   111  106  108 1   
   112  106  112 1   
   113  107  109 1   
   114  107  113 1   
   115  107  114 1   
   116  108  115 1   
   117  108  116 1   
   118  108  117 1   
   119  109  118 1   
   120  109  119 1   
   121  109  120 1   
   122  121  122 1   
   123  121  127 1   
   124  122  123 1   
   125  122  125 1   
   126  122  128 1   
   127  123  124 2   
   128  123  132 1   
   129  125  126 1   
   130  125  129 1   
   131  125  130 1   
   132  126  131 1   
   133  132  133 1   
   134  132  137 1   
   135  133  134 1   
   136  133  136 1   
   137  133  138 1   
   138  134  135 2   
   139  134  142 1   
   140  136  139 1   
   141  136  140 1   
   142  136  141 1   
   143  142  143 1   
   144  142  147 1   
   145  143  144 1   
   146  143  146 1   
   147  143  148 1   
   148  144  145 2   
   149  144  152 1   
   150  146  149 1   
   151  146  150 1   
   152  146  151 1   
   153  152  153 1   
   154  152  161 1   
   155  153  154 1   
   156  153  156 1   
   157  153  162 1   
   158  154  155 2   
   159  154  167 1   
   160  156  157 1   
   161  156  163 1   
   162  156  164 1   
   163  157  158 1   
   164  157  165 1   
   165  157  166 1   
   166  158  159 1   
   167  158  160 1   
   168  167  168 1   
   169  167  172 1   
   170  168  169 1   
   171  168  170 1   
   172  168  171 1   
   173  174  175 1   
   174  174  176 1   
@<TRIPOS>SUBSTRUCTURE
     1 MOL         1 TEMP              0 ****  ****    0 ROOT
