@<TRIPOS>MOLECULE
MOL
  189   185     1     0     0
SMALL
resp


@<TRIPOS>ATOM
      1 C1          0.1170    2.0670    6.0940 c3        1 MOL     -0.276289
      2 C2         -0.2550    1.8380    4.6100 c         1 MOL      0.749326
      3 O1          0.6060    1.7860    3.7500 o         1 MOL     -0.625193
      4 H1          1.1810    1.8790    6.2350 hc        1 MOL      0.066191
      5 H2         -0.1100    3.0960    6.3700 hc        1 MOL      0.066191
      6 H3         -0.4580    1.3870    6.7220 hc        1 MOL      0.066191
      7 N1         -1.4940    1.6700    4.2540 n         1 MOL     -0.613001
      8 C3         -1.9290    1.5000    2.8180 c3        1 MOL      0.118045
      9 C4         -2.3440    2.8400    2.1680 c         1 MOL      0.363142
     10 O2         -3.1810    3.5790    2.7370 o         1 MOL     -0.556196
     11 C5         -3.2470    0.6010    2.8810 c3        1 MOL     -0.168961
     12 C6         -3.8130    0.3130    1.5050 c         1 MOL      1.023393
     13 O3         -3.1790    0.5940    0.4640 o         1 MOL     -0.850208
     14 O4         -5.0190   -0.0750    1.4480 o         1 MOL     -0.850208
     15 H4         -2.2020    1.6810    4.9710 hn        1 MOL      0.324338
     16 H5         -1.1590    0.9310    2.3010 h1        1 MOL      0.072274
     17 H6         -3.9750    1.0470    3.5600 hc        1 MOL      0.038269
     18 H7         -2.9800   -0.3940    3.2330 hc        1 MOL      0.038269
     19 N2         -1.8430    3.2350    1.0140 n         1 MOL     -0.024276
     20 C7         -1.8200    4.6740    0.5990 c3        1 MOL      0.055327
     21 C8         -2.8670    4.9730   -0.3850 c         1 MOL      0.451888
     22 O5         -3.4770    6.0660   -0.3480 o         1 MOL     -0.561239
     23 C9         -0.4070    5.1190    0.1420 c3        1 MOL     -0.102469
     24 C10         0.6270    5.0380    1.3200 c3        1 MOL     -0.001202
     25 C11         0.3190    5.9600    2.5010 c3        1 MOL     -0.039969
     26 C12         1.4570    6.3380    3.4990 c3        1 MOL     -0.049840
     27 N3          0.8470    7.2030    4.5730 n4        1 MOL     -0.261660
     28 H8         -1.3180    2.5430    0.4880 hn        1 MOL      0.019180
     29 H9         -2.0050    5.3350    1.4480 h1        1 MOL      0.023536
     30 H10        -0.5060    6.1600   -0.1630 hc        1 MOL      0.041329
     31 H11        -0.0770    4.5550   -0.7390 hc        1 MOL      0.041329
     32 H12         1.5970    5.3390    0.9110 hc        1 MOL      0.034213
     33 H13         0.7700    3.9990    1.6210 hc        1 MOL      0.034213
     34 H14        -0.5180    5.5920    3.0940 hc        1 MOL      0.039522
     35 H15        -0.0740    6.8650    2.0360 hc        1 MOL      0.039522
     36 H16         2.1270    6.8810    2.8360 hx        1 MOL      0.111009
     37 H17         1.9630    5.4270    3.8270 hx        1 MOL      0.111009
     38 H18         1.5410    7.7460    5.0610 hn        1 MOL      0.303980
     39 H19         0.1000    7.8070    4.2600 hn        1 MOL      0.303980
     40 H20         0.4300    6.6650    5.3270 hn        1 MOL      0.303980
     41 N4         -3.2330    3.9520   -1.2230 n         1 MOL     -0.353284
     42 C13        -4.3250    3.9920   -2.1490 c3        1 MOL      0.225820
     43 C14        -5.6230    3.2520   -1.6750 c         1 MOL      0.342043
     44 O6         -6.6300    3.3500   -2.3720 o         1 MOL     -0.524826
     45 C15        -3.8040    3.6540   -3.5670 c3        1 MOL     -0.431467
     46 C16        -2.8890    2.4410   -3.6400 c         1 MOL      0.881981
     47 O7         -1.9970    2.3750   -4.5120 o         1 MOL     -0.735949
     48 O8         -3.0080    1.4650   -2.8850 o         1 MOL     -0.735949
     49 H21        -2.6260    3.1520   -1.2600 hn        1 MOL      0.247086
     50 H22        -4.6580    5.0300   -2.2620 h1        1 MOL      0.063193
     51 H23        -3.2350    4.5340   -3.8600 hc        1 MOL      0.101320
     52 H24        -4.7290    3.4840   -4.1320 hc        1 MOL      0.101320
     53 N5         -5.6610    2.5120   -0.5380 n         1 MOL     -0.143068
     54 C17        -6.9180    2.0490    0.0000 c3        1 MOL     -0.337793
     55 C18        -7.2880    0.6650   -0.5710 c         1 MOL      0.669312
     56 O9         -8.3930    0.2830   -0.2690 o         1 MOL     -0.623216
     57 H25        -4.8100    2.4530    0.0110 hn        1 MOL      0.171108
     58 H26        -7.6440    2.8400   -0.1360 h1        1 MOL      0.154921
     59 H27        -6.7410    1.8830    1.0610 h1        1 MOL      0.154921
     60 N6         -6.4220   -0.0160   -1.3470 n         1 MOL     -0.263845
     61 C19        -6.7710   -1.3120   -1.9270 c3        1 MOL     -0.087181
     62 C20        -6.5420   -2.5530   -0.9880 c         1 MOL      0.399705
     63 O10        -6.4660   -3.7040   -1.4930 o         1 MOL     -0.499311
     64 C21        -6.0170   -1.5720   -3.2210 c3        1 MOL     -0.131173
     65 C22        -4.5170   -1.5880   -2.9960 c         1 MOL      0.705559
     66 O11        -3.9910   -1.8930   -1.9180 o         1 MOL     -0.652136
     67 O12        -3.7940   -1.4870   -4.0210 o         1 MOL     -0.652136
     68 H28        -5.4870    0.3380   -1.4300 hn        1 MOL      0.150466
     69 H29        -7.8230   -1.1780   -2.1610 h1        1 MOL      0.118231
     70 H30        -6.3730   -0.8020   -3.9080 hc        1 MOL      0.059024
     71 H31        -6.3620   -2.4800   -3.7190 hc        1 MOL      0.059024
     72 N7         -6.5220   -2.3320    0.3370 n         1 MOL     -0.290205
     73 C23        -6.5480   -3.3490    1.3360 c3        1 MOL     -0.285025
     74 C24        -5.3640   -4.2500    1.2600 c         1 MOL      0.546005
     75 O13        -5.4700   -5.3810    1.6700 o         1 MOL     -0.551181
     76 H32        -6.4240   -1.3580    0.5910 hn        1 MOL      0.369542
     77 H33        -7.4620   -3.8990    1.1070 h1        1 MOL      0.134167
     78 H34        -6.6490   -2.9150    2.3280 h1        1 MOL      0.134167
     79 N8         -4.2620   -3.7470    0.7190 n         1 MOL     -0.047502
     80 C25        -2.9840   -4.3810    0.6860 c3        1 MOL     -0.502035
     81 C26        -1.7660   -3.4130    0.8300 c         1 MOL      0.869207
     82 O14        -1.8420   -2.2450    0.4130 o         1 MOL     -0.763487
     83 C27        -2.7900   -5.3040   -0.5550 c3        1 MOL      0.413735
     84 C28        -3.7400   -6.4240   -0.5980 c3        1 MOL     -0.261393
     85 O15        -3.0020   -4.5430   -1.7690 oh        1 MOL     -0.584361
     86 H35        -4.2920   -2.7470    0.5710 hn        1 MOL      0.161303
     87 H36        -2.9300   -5.1620    1.4410 h1        1 MOL      0.120483
     88 H37        -1.7620   -5.6560   -0.4480 h1        1 MOL     -0.027778
     89 H38        -3.4110   -3.7360   -1.4510 ho        1 MOL      0.378257
     90 H39        -4.6940   -6.1040   -1.0180 hc        1 MOL      0.071074
     91 H40        -3.3990   -7.2920   -1.1610 hc        1 MOL      0.071074
     92 H41        -4.0030   -6.8170    0.3860 hc        1 MOL      0.071074
     93 N9         -0.7810   -3.8240    1.6230 n         1 MOL     -0.620637
     94 C29         0.4290   -3.0180    1.9100 c3        1 MOL     -0.000948
     95 C30         1.6880   -3.6120    1.1340 c         1 MOL      0.458845
     96 O16         2.0570   -4.7520    1.3200 o         1 MOL     -0.539700
     97 C31         0.7540   -3.0710    3.4770 c3        1 MOL      0.244241
     98 C32        -0.5000   -2.8160    4.3280 c3        1 MOL      0.231028
     99 C33         1.6930   -1.8980    3.6710 c3        1 MOL     -0.349271
    100 C34        -0.2270   -2.9500    5.8230 c3        1 MOL     -0.338510
    101 H42        -0.9190   -4.6940    2.1190 hn        1 MOL      0.326731
    102 H43         0.2950   -1.9640    1.6890 h1        1 MOL      0.153745
    103 H44         1.2030   -4.0160    3.7730 hc        1 MOL     -0.022632
    104 H45        -1.2560   -3.5860    4.1670 hc        1 MOL     -0.044323
    105 H46        -0.9950   -1.8850    4.0170 hc        1 MOL     -0.044323
    106 H47         2.5320   -1.8740    2.9660 hc        1 MOL      0.055041
    107 H48         1.1730   -0.9480    3.5810 hc        1 MOL      0.055041
    108 H49         2.1930   -1.9540    4.6420 hc        1 MOL      0.055041
    109 H50         0.6430   -2.3340    6.0610 hc        1 MOL      0.074496
    110 H51        -1.1060   -2.5400    6.3200 hc        1 MOL      0.074496
    111 H52         0.0230   -3.9580    6.1550 hc        1 MOL      0.074496
    112 N10         2.3090   -2.7800    0.3290 n         1 MOL     -0.043363
    113 C35         3.4890   -3.0960   -0.4560 c3        1 MOL     -0.180182
    114 C36         4.7120   -2.6710    0.3040 c         1 MOL      0.412215
    115 O17         4.7030   -1.8210    1.2380 o         1 MOL     -0.363995
    116 C37         3.5920   -2.4940   -1.8610 c3        1 MOL      0.377685
    117 C38         2.5670   -3.1690   -2.7660 c3        1 MOL     -0.410835
    118 O18         3.1510   -1.1680   -1.8750 oh        1 MOL     -0.579198
    119 H53         1.8480   -1.8820    0.2200 hn        1 MOL      0.053317
    120 H54         3.4820   -4.1760   -0.6060 h1        1 MOL      0.095220
    121 H55         4.5310   -2.7070   -2.3760 h1        1 MOL      0.047095
    122 H56         2.2460   -1.3010   -1.6020 ho        1 MOL      0.383237
    123 H57         2.7460   -4.2470   -2.7620 hc        1 MOL      0.106821
    124 H58         1.5420   -2.9590   -2.4620 hc        1 MOL      0.106821
    125 H59         2.6640   -2.7960   -3.7810 hc        1 MOL      0.106821
    126 N11         5.8620   -3.1960   -0.0900 n         1 MOL     -0.353720
    127 C39         7.1810   -2.7430    0.3540 c3        1 MOL     -0.082532
    128 C40         7.4820   -1.2490    0.0740 c         1 MOL      0.384000
    129 O19         8.1080   -0.5630    0.8490 o         1 MOL     -0.472057
    130 C41         8.3330   -3.5390   -0.2110 c3        1 MOL      0.291983
    131 C42         8.3750   -4.9370    0.3720 c3        1 MOL     -0.313752
    132 O20         8.2800   -3.7010   -1.6090 oh        1 MOL     -0.649285
    133 H60         5.8320   -3.9330   -0.7780 hn        1 MOL      0.289046
    134 H61         7.2360   -2.7370    1.4360 h1        1 MOL      0.114747
    135 H62         9.2620   -3.0370    0.0540 h1        1 MOL      0.045424
    136 H63         9.0770   -4.2180   -1.7900 ho        1 MOL      0.418273
    137 H64         7.4710   -5.4930    0.1760 hc        1 MOL      0.087564
    138 H65         9.1760   -5.4910   -0.1230 hc        1 MOL      0.087564
    139 H66         8.6890   -4.8260    1.4170 hc        1 MOL      0.087564
    140 N12         7.0840   -0.7720   -1.0790 n         1 MOL     -0.223949
    141 C43         7.0880    0.6500   -1.4410 c3        1 MOL     -0.203390
    142 C44         6.1280    1.4800   -0.5190 c         1 MOL      0.472521
    143 O21         6.5420    2.6040   -0.1680 o         1 MOL     -0.549001
    144 C45         6.7040    0.8060   -2.8760 c3        1 MOL      0.048341
    145 C46         6.7770    2.2570   -3.4020 c3        1 MOL     -0.141823
    146 C47         6.3280    2.2620   -4.8100 c3        1 MOL      0.086468
    147 C48         6.9020    3.4760   -5.5090 c3        1 MOL      0.087705
    148 N13         6.4880    3.5420   -6.9170 n4        1 MOL     -0.313174
    149 H67         6.7450   -1.4300   -1.7730 hn        1 MOL      0.213954
    150 H68         8.0980    1.0230   -1.2460 h1        1 MOL      0.150042
    151 H69         5.7000    0.3830   -3.0170 hc        1 MOL      0.013341
    152 H70         7.3310    0.1870   -3.5190 hc        1 MOL      0.013341
    153 H71         7.7890    2.6470   -3.2830 hc        1 MOL      0.064493
    154 H72         6.0910    2.9270   -2.8860 hc        1 MOL      0.064493
    155 H73         5.2350    2.2500   -4.8900 hc        1 MOL      0.010351
    156 H74         6.8210    1.4290   -5.3060 hc        1 MOL      0.010351
    157 H75         7.9760    3.6140   -5.3910 hx        1 MOL      0.064237
    158 H76         6.4450    4.3650   -5.0630 hx        1 MOL      0.064237
    159 H77         6.7490    2.7080   -7.4390 hn        1 MOL      0.282118
    160 H78         5.5100    3.6710   -7.1060 hn        1 MOL      0.282118
    161 H79         6.9610    4.3170   -7.3660 hn        1 MOL      0.282118
    162 N14         5.0100    0.9380   -0.0950 n         1 MOL     -0.080880
    163 C49         4.2010    1.6910    0.9430 c3        1 MOL     -0.143732
    164 C50         4.7470    1.6680    2.3400 c         1 MOL      0.551051
    165 O22         4.6700    2.7340    3.0230 o         1 MOL     -0.607061
    166 C51         2.6740    1.3150    1.0200 c3        1 MOL     -0.096103
    167 C52         1.9380    1.8530   -0.2860 c3        1 MOL      0.067162
    168 C53         0.5880    1.2170   -0.3560 c         1 MOL      0.690167
    169 O23         0.5380   -0.0620   -0.2450 o         1 MOL     -0.700396
    170 O24        -0.4110    1.7620   -0.8820 o         1 MOL     -0.700396
    171 H80         4.8320   -0.0220   -0.3550 hn        1 MOL      0.143265
    172 H81         4.1990    2.7430    0.6510 h1        1 MOL      0.078237
    173 H82         2.2580    1.8320    1.8880 hc        1 MOL      0.072371
    174 H83         2.4990    0.2560    1.1920 hc        1 MOL      0.072371
    175 H84         2.6150    1.5800   -1.1000 hc        1 MOL     -0.023156
    176 H85         1.7900    2.9260   -0.2000 hc        1 MOL     -0.023156
    177 N15         5.2520    0.5590    2.7800 n         1 MOL     -0.240109
    178 C54         6.1360    0.4130    4.0020 c3        1 MOL     -0.134318
    179 H86         7.1170    0.0490    3.6980 h1        1 MOL      0.082772
    180 H87         6.2450    1.3820    4.4900 h1        1 MOL      0.082772
    181 H88         5.6840   -0.2960    4.6950 h1        1 MOL      0.082772
    182 H89         5.2360   -0.2120    2.1240 hn        1 MOL      0.189465
    183 Ca1        -1.8480   -0.3950   -1.4960 Ca        1 MOL      1.808148
    184 O25        -1.1520   -2.6550   -2.8360 oh        1 MOL     -0.899475
    185 H90        -1.9930   -2.9270   -3.1960 ho        1 MOL      0.409931
    186 H91        -0.4960   -3.1640   -3.3130 ho        1 MOL      0.409931
    187 O26        -0.5180    0.1760   -3.7280 oh        1 MOL     -0.899475
    188 H92        -0.9030    0.8820   -4.2570 ho        1 MOL      0.409931
    189 H93         0.2050   -0.1560   -4.2490 ho        1 MOL      0.409931
@<TRIPOS>BOND
     1    1    2 1   
     2    1    4 1   
     3    1    5 1   
     4    1    6 1   
     5    2    3 2   
     6    2    7 1   
     7    7    8 1   
     8    7   15 1   
     9    8    9 1   
    10    8   11 1   
    11    8   16 1   
    12    9   10 2   
    13    9   19 1   
    14   11   12 1   
    15   11   17 1   
    16   11   18 1   
    17   12   13 1   
    18   12   14 1   
    19   19   20 1   
    20   19   28 1   
    21   20   21 1   
    22   20   23 1   
    23   20   29 1   
    24   21   22 2   
    25   21   41 1   
    26   23   24 1   
    27   23   30 1   
    28   23   31 1   
    29   24   25 1   
    30   24   32 1   
    31   24   33 1   
    32   25   26 1   
    33   25   34 1   
    34   25   35 1   
    35   26   27 1   
    36   26   36 1   
    37   26   37 1   
    38   27   38 1   
    39   27   39 1   
    40   27   40 1   
    41   41   42 1   
    42   41   49 1   
    43   42   43 1   
    44   42   45 1   
    45   42   50 1   
    46   43   44 2   
    47   43   53 1   
    48   45   46 1   
    49   45   51 1   
    50   45   52 1   
    51   46   47 1   
    52   46   48 1   
    53   53   54 1   
    54   53   57 1   
    55   54   55 1   
    56   54   58 1   
    57   54   59 1   
    58   55   56 2   
    59   55   60 1   
    60   60   61 1   
    61   60   68 1   
    62   61   62 1   
    63   61   64 1   
    64   61   69 1   
    65   62   63 2   
    66   62   72 1   
    67   64   65 1   
    68   64   70 1   
    69   64   71 1   
    70   65   66 1   
    71   65   67 1   
    72   72   73 1   
    73   72   76 1   
    74   73   74 1   
    75   73   77 1   
    76   73   78 1   
    77   74   75 2   
    78   74   79 1   
    79   79   80 1   
    80   79   86 1   
    81   80   81 1   
    82   80   83 1   
    83   80   87 1   
    84   81   82 2   
    85   81   93 1   
    86   83   84 1   
    87   83   85 1   
    88   83   88 1   
    89   84   90 1   
    90   84   91 1   
    91   84   92 1   
    92   85   89 1   
    93   93   94 1   
    94   93  101 1   
    95   94   95 1   
    96   94   97 1   
    97   94  102 1   
    98   95   96 2   
    99   95  112 1   
   100   97   98 1   
   101   97   99 1   
   102   97  103 1   
   103   98  100 1   
   104   98  104 1   
   105   98  105 1   
   106   99  106 1   
   107   99  107 1   
   108   99  108 1   
   109  100  109 1   
   110  100  110 1   
   111  100  111 1   
   112  112  113 1   
   113  112  119 1   
   114  113  114 1   
   115  113  116 1   
   116  113  120 1   
   117  114  115 2   
   118  114  126 1   
   119  116  117 1   
   120  116  118 1   
   121  116  121 1   
   122  117  123 1   
   123  117  124 1   
   124  117  125 1   
   125  118  122 1   
   126  126  127 1   
   127  126  133 1   
   128  127  128 1   
   129  127  130 1   
   130  127  134 1   
   131  128  129 2   
   132  128  140 1   
   133  130  131 1   
   134  130  132 1   
   135  130  135 1   
   136  131  137 1   
   137  131  138 1   
   138  131  139 1   
   139  132  136 1   
   140  140  141 1   
   141  140  149 1   
   142  141  142 1   
   143  141  144 1   
   144  141  150 1   
   145  142  143 2   
   146  142  162 1   
   147  144  145 1   
   148  144  151 1   
   149  144  152 1   
   150  145  146 1   
   151  145  153 1   
   152  145  154 1   
   153  146  147 1   
   154  146  155 1   
   155  146  156 1   
   156  147  148 1   
   157  147  157 1   
   158  147  158 1   
   159  148  159 1   
   160  148  160 1   
   161  148  161 1   
   162  162  163 1   
   163  162  171 1   
   164  163  164 1   
   165  163  166 1   
   166  163  172 1   
   167  164  165 2   
   168  164  177 1   
   169  166  167 1   
   170  166  173 1   
   171  166  174 1   
   172  167  168 1   
   173  167  175 1   
   174  167  176 1   
   175  168  169 1   
   176  168  170 1   
   177  177  178 1   
   178  177  182 1   
   179  178  179 1   
   180  178  180 1   
   181  178  181 1   
   182  184  185 1   
   183  184  186 1   
   184  187  188 1   
   185  187  189 1   
@<TRIPOS>SUBSTRUCTURE
     1 MOL         1 TEMP              0 ****  ****    0 ROOT
