@<TRIPOS>MOLECULE
MOL
  178   175     1     0     0
SMALL
resp


@<TRIPOS>ATOM
      1 C1         -1.3790    5.1090    5.3200 c3        1 MOL     -0.284559
      2 C2         -1.4960    4.4240    3.9860 c         1 MOL      0.791325
      3 O1         -0.6980    4.8550    3.1570 o         1 MOL     -0.615278
      4 H1         -1.8270    4.4810    6.0910 hc        1 MOL      0.060639
      5 H2         -0.3270    5.2740    5.5540 hc        1 MOL      0.060639
      6 H3         -1.8990    6.0660    5.2840 hc        1 MOL      0.060639
      7 N1         -2.3580    3.4880    3.6870 n         1 MOL     -0.673523
      8 C3         -2.5350    2.8010    2.3940 c3        1 MOL      0.166556
      9 C4         -2.8480    3.8760    1.3170 c         1 MOL      0.583187
     10 O2         -3.8360    4.6530    1.2750 o         1 MOL     -0.590869
     11 C5         -3.7260    1.8350    2.5470 c3        1 MOL     -0.281744
     12 C6         -3.8960    0.9090    1.4390 c         1 MOL      0.757313
     13 O3         -4.6180   -0.0870    1.6070 o         1 MOL     -0.701389
     14 O4         -3.3240    1.1570    0.3630 o         1 MOL     -0.701389
     15 H4         -2.8160    3.0250    4.4670 hn        1 MOL      0.317721
     16 H5         -1.6270    2.2740    2.1340 h1        1 MOL      0.072580
     17 H6         -4.6440    2.4020    2.6440 hc        1 MOL      0.069666
     18 H7         -3.5480    1.1960    3.4200 hc        1 MOL      0.069666
     19 N2         -1.9800    3.8290    0.2700 n         1 MOL     -0.353247
     20 C7         -2.1080    4.7860   -0.7540 c3        1 MOL      0.190386
     21 C8         -3.2590    4.5430   -1.7510 c         1 MOL      0.370486
     22 O5         -3.5650    5.3300   -2.6640 o         1 MOL     -0.577150
     23 C9         -0.7400    4.9600   -1.4750 c3        1 MOL     -0.275893
     24 H8         -1.2970    3.0900    0.1520 hn        1 MOL      0.220812
     25 H9         -2.2740    5.7380   -0.2500 h1        1 MOL      0.054736
     26 H10        -0.5430    4.0910   -2.1140 hc        1 MOL      0.072572
     27 H11        -0.7380    5.8910   -2.0470 hc        1 MOL      0.072572
     28 H12         0.0730    4.9740   -0.7540 hc        1 MOL      0.072572
     29 N3         -4.0450    3.4840   -1.5840 n         1 MOL     -0.054577
     30 C10        -5.2670    3.2660   -2.3400 c3        1 MOL     -0.041729
     31 C11        -6.4090    2.7510   -1.5780 c         1 MOL      0.399323
     32 O6         -7.4940    2.9150   -2.0900 o         1 MOL     -0.536748
     33 C12        -5.1130    2.4140   -3.6040 c3        1 MOL     -0.038890
     34 C13        -4.6500    0.9750   -3.4600 c         1 MOL      0.751413
     35 O7         -4.6290    0.3110   -4.5370 o         1 MOL     -0.732216
     36 O8         -4.3540    0.5330   -2.3270 o         1 MOL     -0.732216
     37 H13        -3.8690    2.8470   -0.8240 hn        1 MOL      0.055459
     38 H14        -5.5810    4.2000   -2.7990 h1        1 MOL      0.101334
     39 H15        -4.2630    2.9240   -4.0700 hc        1 MOL      0.010378
     40 H16        -5.9730    2.5320   -4.2660 hc        1 MOL      0.010378
     41 N4         -6.2240    2.1540   -0.4150 n         1 MOL     -0.104805
     42 C14        -7.3170    1.6850    0.3020 c3        1 MOL     -0.190429
     43 C15        -7.6490    0.1890    0.0290 c         1 MOL      0.474579
     44 O9         -8.6730   -0.2900    0.5690 o         1 MOL     -0.571233
     45 H17        -5.3370    1.8080   -0.0850 hn        1 MOL      0.099868
     46 H18        -8.1970    2.2680    0.0510 h1        1 MOL      0.108975
     47 H19        -7.1470    1.9260    1.3500 h1        1 MOL      0.108975
     48 N5         -6.7850   -0.5210   -0.7200 n         1 MOL     -0.293759
     49 C16        -7.0310   -2.0180   -1.0440 c3        1 MOL     -0.059723
     50 C17        -6.9380   -3.0030    0.1600 c         1 MOL      0.462852
     51 O10        -7.5710   -4.0980    0.0820 o         1 MOL     -0.557993
     52 C18        -6.1950   -2.4560   -2.2350 c3        1 MOL     -0.171550
     53 C19        -4.6810   -2.7020   -1.9060 c         1 MOL      0.547540
     54 N6         -4.0870   -3.3950   -2.8360 n         1 MOL     -0.701182
     55 O11        -4.0890   -2.1430   -1.0130 o         1 MOL     -0.614578
     56 H20        -5.9220   -0.0560   -0.9800 hn        1 MOL      0.284260
     57 H21        -8.0520   -2.1500   -1.3830 h1        1 MOL      0.118977
     58 H22        -6.1730   -1.7310   -3.0520 hc        1 MOL      0.081211
     59 H23        -6.6010   -3.3700   -2.6730 hc        1 MOL      0.081211
     60 H24        -4.7020   -3.8820   -3.4650 hn        1 MOL      0.340127
     61 H25        -3.1060   -3.6250   -2.7910 hn        1 MOL      0.340127
     62 N7         -6.1660   -2.5910    1.1930 n         1 MOL     -0.163516
     63 C20        -6.0670   -3.3380    2.4760 c3        1 MOL     -0.210106
     64 C21        -4.7010   -3.7130    2.8820 c         1 MOL      0.584522
     65 O12        -4.4090   -4.4960    3.7780 o         1 MOL     -0.584201
     66 H26        -5.7280   -1.6830    1.1330 hn        1 MOL      0.262253
     67 H27        -6.6610   -4.2440    2.3720 h1        1 MOL      0.109063
     68 H28        -6.4110   -2.6860    3.2770 h1        1 MOL      0.109063
     69 N8         -3.6650   -3.2510    2.1590 n         1 MOL     -0.275386
     70 C22        -2.2530   -3.8000    2.1550 c3        1 MOL     -0.300086
     71 C23        -1.2860   -2.7180    1.8430 c         1 MOL      0.707137
     72 O13        -1.6210   -1.7640    1.1300 o         1 MOL     -0.577077
     73 C24        -2.0450   -5.0360    1.2680 c3        1 MOL      0.397959
     74 C25        -2.9710   -6.2650    1.5820 c3        1 MOL     -0.501690
     75 O14        -2.3440   -4.6630   -0.1190 oh        1 MOL     -0.618298
     76 H29        -3.7770   -2.3690    1.6630 hn        1 MOL      0.226142
     77 H30        -2.0090   -4.1480    3.1560 h1        1 MOL      0.125225
     78 H31        -0.9860   -5.3200    1.3110 h1        1 MOL      0.052719
     79 H32        -3.2960   -4.7940   -0.0850 ho        1 MOL      0.371365
     80 H33        -2.6910   -6.3470    2.6310 hc        1 MOL      0.139186
     81 H34        -4.0650   -6.1520    1.5490 hc        1 MOL      0.139186
     82 H35        -2.5960   -7.1200    1.0270 hc        1 MOL      0.139186
     83 N9         -0.0800   -2.8120    2.3600 n         1 MOL     -0.383106
     84 C26         1.0390   -1.9420    1.9470 c3        1 MOL     -0.089068
     85 C27         2.1670   -2.6530    1.0530 c         1 MOL      0.499073
     86 O15         2.7260   -3.6810    1.4640 o         1 MOL     -0.558891
     87 C28         1.4940   -1.1010    3.1670 c3        1 MOL      0.056289
     88 C29         1.9530   -1.9570    4.3280 c3        1 MOL     -0.280419
     89 C30         0.5070   -0.0570    3.6830 c3        1 MOL     -0.482897
     90 C31         2.4330   -1.1850    5.5400 c3        1 MOL     -0.012893
     91 H36         0.1540   -3.4990    3.0720 hn        1 MOL      0.244980
     92 H37         0.6840   -1.1950    1.2220 h1        1 MOL      0.099763
     93 H38         2.3310   -0.4520    2.9110 hc        1 MOL      0.015106
     94 H39         2.9340   -2.3810    4.1140 hc        1 MOL      0.102376
     95 H40         1.2030   -2.6880    4.6510 hc        1 MOL      0.102376
     96 H41        -0.1070    0.3180    2.8600 hc        1 MOL      0.144608
     97 H42        -0.0730   -0.4690    4.5080 hc        1 MOL      0.144608
     98 H43         1.0550    0.7990    4.0560 hc        1 MOL      0.144608
     99 H44         2.8790   -1.9180    6.2190 hc        1 MOL      0.010044
    100 H45         3.3130   -0.5670    5.3740 hc        1 MOL      0.010044
    101 H46         1.6900   -0.5780    6.0650 hc        1 MOL      0.010044
    102 N10         2.2950   -2.1140   -0.2100 n         1 MOL     -0.322816
    103 C32         3.4490   -2.4270   -1.1380 c3        1 MOL      0.045984
    104 C33         4.6540   -1.4480   -0.8510 c         1 MOL      0.446887
    105 O16         4.4410   -0.5510   -0.0420 o         1 MOL     -0.336866
    106 C34         2.8390   -2.2880   -2.5180 c3        1 MOL     -0.072925
    107 C35         3.7170   -2.8080   -3.6210 c         1 MOL      0.650771
    108 O17         3.1660   -2.8000   -4.7510 o         1 MOL     -0.707649
    109 O18         4.8560   -3.3280   -3.3690 o         1 MOL     -0.707649
    110 H47         1.5270   -1.5780   -0.5810 hn        1 MOL      0.212664
    111 H48         3.6910   -3.4790   -0.9680 h1        1 MOL      0.058862
    112 H49         2.6830   -1.2430   -2.7940 hc        1 MOL      0.039366
    113 H50         1.8680   -2.7760   -2.6090 hc        1 MOL      0.039366
    114 N11         5.8250   -1.7020   -1.3840 n         1 MOL     -0.630087
    115 C36         7.0560   -1.1660   -0.8180 c3        1 MOL      0.673754
    116 C37         7.1080    0.3750   -0.5260 c         1 MOL      0.130719
    117 O19         7.4750    0.7360    0.5960 o         1 MOL     -0.471134
    118 C38         8.2410   -1.6250   -1.6260 c3        1 MOL     -0.471050
    119 C39         9.5870   -1.3770   -0.9360 ca        1 MOL      0.205668
    120 C40         9.8920   -1.8950    0.3340 ca        1 MOL     -0.183713
    121 C41        10.6590   -0.7150   -1.6750 ca        1 MOL     -0.183713
    122 C42        11.1220   -1.7230    0.9270 ca        1 MOL     -0.137052
    123 C43        11.9180   -0.6240   -1.0770 ca        1 MOL     -0.137052
    124 C44        12.1510   -1.0650    0.2320 ca        1 MOL     -0.085266
    125 H51         5.8500   -2.5060   -1.9920 hn        1 MOL      0.299342
    126 H52         7.2200   -1.6500    0.1500 h1        1 MOL     -0.041944
    127 H53         8.2660   -1.0260   -2.5390 hc        1 MOL      0.129845
    128 H54         7.9530   -2.6310   -1.9410 hc        1 MOL      0.129845
    129 H55         9.1730   -2.4460    0.9180 ha        1 MOL      0.127752
    130 H56        10.4280   -0.3340   -2.6560 ha        1 MOL      0.127752
    131 H57        11.1910   -1.9730    1.9760 ha        1 MOL      0.113637
    132 H58        12.7040   -0.0840   -1.5760 ha        1 MOL      0.113637
    133 H59        13.1220   -0.8710    0.6700 ha        1 MOL      0.087520
    134 N12         6.6660    1.2960   -1.4180 n         1 MOL      0.001949
    135 C45         6.5330    2.7380   -1.1070 c3        1 MOL      0.170604
    136 C46         5.5930    2.9900    0.0840 c         1 MOL      0.323985
    137 O20         5.9550    3.8180    0.9680 o         1 MOL     -0.511903
    138 C47         5.9950    3.4690   -2.3730 c3        1 MOL     -0.276578
    139 C48         5.4870    2.3300   -3.2420 c3        1 MOL      0.179486
    140 C49         6.2920    1.0790   -2.7820 c3        1 MOL     -0.108991
    141 H60         7.5090    3.1500   -0.8210 h1        1 MOL      0.015127
    142 H61         5.1250    4.0630   -2.1020 hc        1 MOL      0.074883
    143 H62         6.8290    3.9930   -2.8460 hc        1 MOL      0.074883
    144 H63         4.4910    2.0540   -2.8840 hc        1 MOL     -0.018775
    145 H64         5.4310    2.5060   -4.3250 hc        1 MOL     -0.018775
    146 H65         5.6760    0.1790   -2.8660 h1        1 MOL      0.019633
    147 H66         7.2280    1.0000   -3.3240 h1        1 MOL      0.019633
    148 N13         4.4440    2.3030    0.1340 n         1 MOL     -0.186241
    149 C50         3.5210    2.4830    1.2100 c3        1 MOL     -0.127421
    150 C51         4.0920    2.0050    2.5940 c         1 MOL      0.383843
    151 O21         3.8210    2.6650    3.6520 o         1 MOL     -0.567282
    152 C52         2.2300    1.6560    0.9060 c3        1 MOL      0.180142
    153 C53         1.7230    1.9230   -0.5290 c3        1 MOL     -0.356506
    154 C54         0.5870    0.9590   -0.7160 c         1 MOL      0.764057
    155 O22         0.6640   -0.1690   -1.2970 o         1 MOL     -0.729599
    156 O23        -0.5550    1.3560   -0.3980 o         1 MOL     -0.729599
    157 H67         4.2860    1.5360   -0.4980 hn        1 MOL      0.295315
    158 H68         3.2110    3.5210    1.2990 h1        1 MOL      0.133106
    159 H69         1.3870    1.7780    1.5750 hc        1 MOL     -0.005781
    160 H70         2.4240    0.5910    0.9880 hc        1 MOL     -0.005781
    161 H71         2.4750    1.7430   -1.3000 hc        1 MOL      0.059970
    162 H72         1.4130    2.9690   -0.5870 hc        1 MOL      0.059970
    163 N14         4.9170    0.9650    2.5800 n         1 MOL      0.181298
    164 C55         5.7470    0.4540    3.6600 c3        1 MOL     -0.381954
    165 H73         5.5340   -0.6040    3.8130 h1        1 MOL      0.127986
    166 H74         6.7990    0.5780    3.4000 h1        1 MOL      0.127986
    167 H75         5.5310    1.0030    4.5770 h1        1 MOL      0.127986
    168 H76         5.0750    0.5540    1.6650 hn        1 MOL     -0.051978
    169 Ca1        -2.1130   -0.3980   -1.3500 Ca        1 MOL      1.801059
    170 O24        -1.3930    1.4160   -3.3010 oh        1 MOL     -0.839341
    171 H77        -0.6110    1.1270   -3.7680 ho        1 MOL      0.405693
    172 H78        -1.6170    2.2590   -3.7020 ho        1 MOL      0.405693
    173 O25        -2.5570   -1.2850   -3.9830 oh        1 MOL     -0.839341
    174 H79        -2.3170   -1.5320   -4.8730 ho        1 MOL      0.405693
    175 H80        -3.3260   -0.7250   -4.0780 ho        1 MOL      0.405693
    176 O26        -1.1080   -2.9030   -1.9730 oh        1 MOL     -0.839341
    177 H81        -1.4190   -3.5610   -1.3420 ho        1 MOL      0.405693
    178 H82        -0.8200   -3.4130   -2.7350 ho        1 MOL      0.405693
@<TRIPOS>BOND
     1    1    2 1   
     2    1    4 1   
     3    1    5 1   
     4    1    6 1   
     5    2    3 2   
     6    2    7 1   
     7    7    8 1   
     8    7   15 1   
     9    8    9 1   
    10    8   11 1   
    11    8   16 1   
    12    9   10 2   
    13    9   19 1   
    14   11   12 1   
    15   11   17 1   
    16   11   18 1   
    17   12   13 1   
    18   12   14 1   
    19   19   20 1   
    20   19   24 1   
    21   20   21 1   
    22   20   23 1   
    23   20   25 1   
    24   21   22 2   
    25   21   29 1   
    26   23   26 1   
    27   23   27 1   
    28   23   28 1   
    29   29   30 1   
    30   29   37 1   
    31   30   31 1   
    32   30   33 1   
    33   30   38 1   
    34   31   32 2   
    35   31   41 1   
    36   33   34 1   
    37   33   39 1   
    38   33   40 1   
    39   34   35 1   
    40   34   36 1   
    41   41   42 1   
    42   41   45 1   
    43   42   43 1   
    44   42   46 1   
    45   42   47 1   
    46   43   44 2   
    47   43   48 1   
    48   48   49 1   
    49   48   56 1   
    50   49   50 1   
    51   49   52 1   
    52   49   57 1   
    53   50   51 2   
    54   50   62 1   
    55   52   53 1   
    56   52   58 1   
    57   52   59 1   
    58   53   54 1   
    59   53   55 2   
    60   54   60 1   
    61   54   61 1   
    62   62   63 1   
    63   62   66 1   
    64   63   64 1   
    65   63   67 1   
    66   63   68 1   
    67   64   65 2   
    68   64   69 1   
    69   69   70 1   
    70   69   76 1   
    71   70   71 1   
    72   70   73 1   
    73   70   77 1   
    74   71   72 2   
    75   71   83 1   
    76   73   74 1   
    77   73   75 1   
    78   73   78 1   
    79   74   80 1   
    80   74   81 1   
    81   74   82 1   
    82   75   79 1   
    83   83   84 1   
    84   83   91 1   
    85   84   85 1   
    86   84   87 1   
    87   84   92 1   
    88   85   86 2   
    89   85  102 1   
    90   87   88 1   
    91   87   89 1   
    92   87   93 1   
    93   88   90 1   
    94   88   94 1   
    95   88   95 1   
    96   89   96 1   
    97   89   97 1   
    98   89   98 1   
    99   90   99 1   
   100   90  100 1   
   101   90  101 1   
   102  102  103 1   
   103  102  110 1   
   104  103  104 1   
   105  103  106 1   
   106  103  111 1   
   107  104  105 2   
   108  104  114 1   
   109  106  107 1   
   110  106  112 1   
   111  106  113 1   
   112  107  108 1   
   113  107  109 1   
   114  114  115 1   
   115  114  125 1   
   116  115  116 1   
   117  115  118 1   
   118  115  126 1   
   119  116  117 2   
   120  116  134 1   
   121  118  119 1   
   122  118  127 1   
   123  118  128 1   
   124  119  120 ar  
   125  119  121 ar  
   126  120  122 ar  
   127  120  129 1   
   128  121  123 ar  
   129  121  130 1   
   130  122  124 ar  
   131  122  131 1   
   132  123  124 ar  
   133  123  132 1   
   134  124  133 1   
   135  134  135 1   
   136  134  140 1   
   137  135  136 1   
   138  135  138 1   
   139  135  141 1   
   140  136  137 2   
   141  136  148 1   
   142  138  139 1   
   143  138  142 1   
   144  138  143 1   
   145  139  140 1   
   146  139  144 1   
   147  139  145 1   
   148  140  146 1   
   149  140  147 1   
   150  148  149 1   
   151  148  157 1   
   152  149  150 1   
   153  149  152 1   
   154  149  158 1   
   155  150  151 2   
   156  150  163 1   
   157  152  153 1   
   158  152  159 1   
   159  152  160 1   
   160  153  154 1   
   161  153  161 1   
   162  153  162 1   
   163  154  155 1   
   164  154  156 1   
   165  163  164 1   
   166  163  168 1   
   167  164  165 1   
   168  164  166 1   
   169  164  167 1   
   170  170  171 1   
   171  170  172 1   
   172  173  174 1   
   173  173  175 1   
   174  176  177 1   
   175  176  178 1   
@<TRIPOS>SUBSTRUCTURE
     1 MOL         1 TEMP              0 ****  ****    0 ROOT
