@<TRIPOS>MOLECULE
MOL
  189   185     1     0     0
SMALL
resp


@<TRIPOS>ATOM
      1 C1          0.3750    3.7400   -4.9020 c3        1 MOL     -0.487353
      2 C2          0.7530    3.0210   -3.6330 c         1 MOL      0.851613
      3 O1         -0.0510    3.0700   -2.6800 o         1 MOL     -0.654986
      4 H1         -0.6830    3.5790   -5.1080 hc        1 MOL      0.123364
      5 H2          0.5650    4.8080   -4.7860 hc        1 MOL      0.123364
      6 H3          0.9690    3.3530   -5.7310 hc        1 MOL      0.123364
      7 N1          1.8450    2.2940   -3.4650 n         1 MOL     -0.641492
      8 C3          2.3340    1.9030   -2.0880 c3        1 MOL      0.322962
      9 C4          2.8640    3.1500   -1.4080 c         1 MOL      0.280459
     10 O2          3.6150    3.9300   -1.9840 o         1 MOL     -0.536361
     11 C5          3.4470    0.8920   -2.1680 c3        1 MOL     -0.201655
     12 C6          4.1250    0.4540   -0.8710 c         1 MOL      0.622814
     13 O3          3.4230    0.2530    0.1430 o         1 MOL     -0.625683
     14 O4          5.3620    0.2460   -0.9400 o         1 MOL     -0.625683
     15 H4          2.5360    2.2900   -4.2000 hn        1 MOL      0.302575
     16 H5          1.5090    1.3830   -1.5950 h1        1 MOL     -0.010817
     17 H6          4.2130    1.3380   -2.8030 hc        1 MOL      0.044230
     18 H7          3.1120    0.0010   -2.6880 hc        1 MOL      0.044230
     19 N2          2.5110    3.2360   -0.0910 n         1 MOL     -0.004946
     20 C7          2.8250    4.4360    0.7060 c3        1 MOL      0.038429
     21 C8          3.8670    4.0420    1.7090 c         1 MOL      0.497398
     22 O5          4.5170    4.9650    2.2080 o         1 MOL     -0.583872
     23 C9          1.5180    5.0250    1.3110 c3        1 MOL     -0.012024
     24 C10         0.4960    5.6410    0.2770 c3        1 MOL     -0.036965
     25 C11         1.2280    6.5650   -0.6610 c3        1 MOL     -0.079867
     26 C12         0.3120    7.6040   -1.2600 c3        1 MOL      0.185367
     27 N3          0.8300    8.3950   -2.4110 n4        1 MOL     -0.477292
     28 H8          1.7570    2.6290    0.1950 hn        1 MOL      0.193676
     29 H9          3.2750    5.1970    0.0710 h1        1 MOL      0.003133
     30 H10         1.7740    5.7320    2.1010 hc        1 MOL      0.027759
     31 H11         1.0700    4.1550    1.7880 hc        1 MOL      0.027759
     32 H12        -0.3320    6.1550    0.7720 hc        1 MOL      0.044946
     33 H13         0.1320    4.7900   -0.3070 hc        1 MOL      0.044946
     34 H14         1.6360    5.8880   -1.4160 hc        1 MOL      0.040602
     35 H15         1.9430    7.1850   -0.1180 hc        1 MOL      0.040602
     36 H16        -0.0940    8.1910   -0.4300 hx        1 MOL      0.041155
     37 H17        -0.5770    7.0850   -1.6230 hx        1 MOL      0.041155
     38 H18         1.6620    8.9530   -2.2470 hn        1 MOL      0.348957
     39 H19         0.9810    7.7670   -3.1840 hn        1 MOL      0.348957
     40 H20         0.1670    9.0490   -2.8010 hn        1 MOL      0.348957
     41 N4          4.1420    2.7770    1.9650 n         1 MOL     -0.127009
     42 C13         4.9920    2.2380    3.0320 c3        1 MOL     -0.063395
     43 C14         6.4520    1.8820    2.6950 c         1 MOL      0.458929
     44 O6          7.2560    1.9400    3.5960 o         1 MOL     -0.513931
     45 C15         4.2920    1.0960    3.7560 c3        1 MOL      0.045976
     46 C16         2.8660    1.3230    4.1150 c         1 MOL      0.560140
     47 O7          1.9630    0.9120    3.3340 o         1 MOL     -0.615968
     48 O8          2.5390    2.1570    5.0010 o         1 MOL     -0.615968
     49 H21         3.7510    2.0540    1.3750 hn        1 MOL     -0.039283
     50 H22         5.1210    3.0060    3.7930 h1        1 MOL      0.100976
     51 H23         4.6990    0.8680    4.7300 hc        1 MOL     -0.005222
     52 H24         4.3230    0.2180    3.1190 hc        1 MOL     -0.005222
     53 N5          6.7910    1.4560    1.4230 n         1 MOL     -0.347444
     54 C17         8.1370    0.9340    1.1280 c3        1 MOL     -0.123375
     55 C18         8.0840   -0.6140    0.8550 c         1 MOL      0.523964
     56 O9          9.0520   -1.2030    0.4020 o         1 MOL     -0.564726
     57 H25         6.0750    1.3150    0.7260 hn        1 MOL      0.245413
     58 H26         8.8500    1.0520    1.9480 h1        1 MOL      0.107439
     59 H27         8.4840    1.4340    0.2280 h1        1 MOL      0.107439
     60 N6          6.9410   -1.2720    1.2440 n         1 MOL     -0.324744
     61 C19         6.8150   -2.7360    1.2720 c3        1 MOL     -0.005591
     62 C20         6.4350   -3.3350   -0.1310 c         1 MOL      0.347048
     63 O10         6.5430   -4.5550   -0.3030 o         1 MOL     -0.536805
     64 C21         5.6500   -3.1600    2.2920 c3        1 MOL     -0.373376
     65 C22         4.2670   -2.5960    1.9000 c         1 MOL      1.077824
     66 O11         3.7290   -2.7260    0.7910 o         1 MOL     -0.893132
     67 O12         3.5350   -2.0510    2.7600 o         1 MOL     -0.893132
     68 H28         6.1890   -0.6770    1.5440 hn        1 MOL      0.243691
     69 H29         7.7540   -3.1970    1.5960 h1        1 MOL      0.133284
     70 H30         5.8730   -2.7230    3.2630 hc        1 MOL      0.107334
     71 H31         5.3940   -4.2130    2.3270 hc        1 MOL      0.107334
     72 N7          6.1510   -2.6150   -1.1680 n         1 MOL     -0.031610
     73 C23         5.8570   -3.1460   -2.4590 c3        1 MOL     -0.132637
     74 C24         4.5760   -3.9910   -2.5440 c         1 MOL      0.569286
     75 O13         4.4530   -4.7790   -3.4970 o         1 MOL     -0.569938
     76 H32         6.2790   -1.6190   -1.1160 hn        1 MOL      0.191666
     77 H33         6.7210   -3.6780   -2.8450 h1        1 MOL      0.058536
     78 H34         5.6840   -2.2770   -3.1100 h1        1 MOL      0.058536
     79 N8          3.5750   -3.7150   -1.6850 n         1 MOL     -0.265617
     80 C25         2.1670   -4.1120   -1.7850 c3        1 MOL     -0.364827
     81 C26         1.1860   -2.9580   -1.7080 c         1 MOL      0.790922
     82 O14         1.2240   -2.1630   -0.7580 o         1 MOL     -0.695129
     83 C27         1.8330   -5.2700   -0.8250 c3        1 MOL      0.581905
     84 C28         2.2080   -6.6670   -1.2800 c3        1 MOL     -0.476547
     85 O15         2.4540   -5.1440    0.4620 oh        1 MOL     -0.682257
     86 H35         3.7670   -2.9490   -1.0430 hn        1 MOL      0.263434
     87 H36         2.0520   -4.5590   -2.7740 h1        1 MOL      0.114670
     88 H37         0.7540   -5.2680   -0.7370 h1        1 MOL     -0.067869
     89 H38         2.7990   -4.2480    0.5480 ho        1 MOL      0.464415
     90 H39         1.8400   -7.3970   -0.5620 hc        1 MOL      0.124123
     91 H40         1.7420   -6.8360   -2.2540 hc        1 MOL      0.124123
     92 H41         3.2910   -6.7320   -1.3840 hc        1 MOL      0.124123
     93 N9          0.1190   -2.9460   -2.5530 n         1 MOL     -0.624261
     94 C29        -0.9970   -1.9040   -2.6740 c3        1 MOL     -0.038923
     95 C30        -2.2040   -2.5220   -2.0360 c         1 MOL      0.462078
     96 O16        -2.6810   -3.5730   -2.5060 o         1 MOL     -0.554896
     97 C31        -1.3360   -1.4650   -4.0980 c3        1 MOL      0.199809
     98 C32        -0.2200   -1.1780   -5.0340 c3        1 MOL      0.300754
     99 C33        -2.1270   -0.2150   -3.8470 c3        1 MOL     -0.607153
    100 C34        -0.6990   -0.9870   -6.4770 c3        1 MOL     -0.196128
    101 H42         0.2510   -3.5440   -3.3460 hn        1 MOL      0.323001
    102 H43        -0.6720   -1.0080   -2.1370 h1        1 MOL      0.155302
    103 H44        -2.0020   -2.1660   -4.6010 hc        1 MOL     -0.016073
    104 H45         0.4580   -2.0220   -4.9350 hc        1 MOL     -0.086611
    105 H46         0.2810   -0.2750   -4.6970 hc        1 MOL     -0.086611
    106 H47        -3.0500   -0.4050   -3.2940 hc        1 MOL      0.126733
    107 H48        -1.5980    0.7140   -3.6680 hc        1 MOL      0.126733
    108 H49        -2.5590   -0.0450   -4.8300 hc        1 MOL      0.126733
    109 H50        -1.2230   -1.9080   -6.7630 hc        1 MOL      0.037898
    110 H51        -1.3930   -0.1510   -6.5830 hc        1 MOL      0.037898
    111 H52         0.1660   -0.8620   -7.1270 hc        1 MOL      0.037898
    112 N10        -2.6260   -1.9610   -0.9330 n         1 MOL     -0.067010
    113 C35        -3.9120   -2.2980   -0.3050 c3        1 MOL     -0.107623
    114 C36        -5.1800   -1.7710   -1.0720 c         1 MOL      0.322228
    115 O17        -5.0350   -0.7690   -1.7000 o         1 MOL     -0.253463
    116 C37        -3.9230   -1.8810    1.1680 c3        1 MOL      0.221350
    117 C38        -3.0100   -2.7980    2.0260 c3        1 MOL     -0.475247
    118 O18        -3.6010   -0.5450    1.3710 oh        1 MOL     -0.495656
    119 H53        -2.0040   -1.3790   -0.4090 hn        1 MOL      0.232362
    120 H54        -3.9940   -3.3910   -0.3490 h1        1 MOL      0.054781
    121 H55        -4.9100   -2.1760    1.5140 h1        1 MOL      0.067229
    122 H56        -2.7430   -0.3810    0.9780 ho        1 MOL      0.396173
    123 H57        -3.2560   -3.8480    1.8650 hc        1 MOL      0.111139
    124 H58        -2.0480   -2.6290    1.5490 hc        1 MOL      0.111139
    125 H59        -2.9670   -2.5850    3.1030 hc        1 MOL      0.111139
    126 N11        -6.2610   -2.4710   -0.8370 n         1 MOL     -0.391852
    127 C39        -7.5780   -1.7800   -0.9090 c3        1 MOL     -0.038755
    128 C40        -7.6060   -0.3150   -0.3950 c         1 MOL      0.191719
    129 O19        -8.3130    0.5380   -0.8930 o         1 MOL     -0.426438
    130 C41        -8.6510   -2.5660   -0.1570 c3        1 MOL      0.266892
    131 C42        -9.0430   -3.9390   -0.7810 c3        1 MOL     -0.398509
    132 O20        -8.2570   -2.7600    1.2380 oh        1 MOL     -0.634007
    133 H60        -6.1360   -3.3070   -0.2820 hn        1 MOL      0.323257
    134 H61        -7.8470   -1.7770   -1.9640 h1        1 MOL      0.145668
    135 H62        -9.5540   -1.9660   -0.0150 h1        1 MOL      0.062061
    136 H63        -9.0920   -2.8770    1.6900 ho        1 MOL      0.402891
    137 H64        -9.6990   -3.8050   -1.6430 hc        1 MOL      0.120385
    138 H65        -8.1520   -4.4730   -1.1160 hc        1 MOL      0.120385
    139 H66        -9.4910   -4.5150    0.0250 hc        1 MOL      0.120385
    140 N12        -6.9880   -0.0450    0.8120 n         1 MOL     -0.025924
    141 C43        -6.8820    1.2760    1.4680 c3        1 MOL      0.115166
    142 C44        -6.0790    2.2520    0.6140 c         1 MOL      0.239897
    143 O21        -6.5060    3.3630    0.3050 o         1 MOL     -0.487576
    144 C45        -6.4460    1.1430    2.9160 c3        1 MOL     -0.080118
    145 C46        -7.2260    0.0200    3.6370 c3        1 MOL     -0.071248
    146 C47        -6.7810    0.0330    5.1430 c3        1 MOL     -0.064702
    147 C48        -7.2140   -1.2890    5.8210 c3        1 MOL      0.026351
    148 N13        -6.9280   -1.2570    7.2550 n4        1 MOL     -0.210101
    149 H67        -6.7720   -0.8350    1.4050 hn        1 MOL      0.051369
    150 H68        -7.8550    1.7550    1.5220 h1        1 MOL      0.035981
    151 H69        -6.6910    2.0990    3.3970 hc        1 MOL      0.038673
    152 H70        -5.3620    0.9820    2.9250 hc        1 MOL      0.038673
    153 H71        -7.0260   -0.9800    3.2620 hc        1 MOL      0.050726
    154 H72        -8.3090    0.0430    3.4790 hc        1 MOL      0.050726
    155 H73        -7.1430    0.8820    5.7190 hc        1 MOL      0.055777
    156 H74        -5.6960    0.0580    5.1800 hc        1 MOL      0.055777
    157 H75        -6.6640   -2.0560    5.2670 hx        1 MOL      0.076509
    158 H76        -8.2570   -1.5020    5.6250 hx        1 MOL      0.076509
    159 H77        -6.1400   -0.6410    7.4250 hn        1 MOL      0.251378
    160 H78        -7.7270   -0.8630    7.7420 hn        1 MOL      0.251378
    161 H79        -6.8660   -2.1650    7.7010 hn        1 MOL      0.251378
    162 N14        -4.9110    1.8410    0.2100 n         1 MOL      0.004346
    163 C49        -4.0020    2.5540   -0.6360 c3        1 MOL     -0.196166
    164 C50        -4.4810    2.8100   -2.0150 c         1 MOL      0.426603
    165 O22        -4.2680    3.9010   -2.5720 o         1 MOL     -0.549130
    166 C51        -2.6280    1.8890   -0.6460 c3        1 MOL      0.067617
    167 C52        -1.8250    2.0270    0.6220 c3        1 MOL     -0.200479
    168 C53        -0.6600    1.0790    0.5410 c         1 MOL      0.883403
    169 O23         0.4940    1.4510    0.5620 o         1 MOL     -0.794177
    170 O24        -0.8820   -0.1730    0.5950 o         1 MOL     -0.794177
    171 H80        -4.5570    0.9730    0.5960 hn        1 MOL      0.148192
    172 H81        -3.8650    3.5360   -0.1840 h1        1 MOL      0.100505
    173 H82        -2.0060    2.3930   -1.3800 hc        1 MOL      0.054653
    174 H83        -2.7580    0.8230   -0.8680 hc        1 MOL      0.054653
    175 H84        -2.4610    1.6560    1.4270 hc        1 MOL      0.000172
    176 H85        -1.5110    3.0630    0.7550 hc        1 MOL      0.000172
    177 N15        -5.2510    1.8810   -2.5920 n         1 MOL     -0.031846
    178 C54        -5.7280    2.0610   -3.9130 c3        1 MOL     -0.332151
    179 H86        -6.8070    1.9040   -3.9330 h1        1 MOL      0.105263
    180 H87        -5.5020    3.0740   -4.2460 h1        1 MOL      0.105263
    181 H88        -5.2440    1.3440   -4.5760 h1        1 MOL      0.105263
    182 H89        -5.3380    0.9220   -2.3000 hn        1 MOL      0.141612
    183 Ca1         1.5730   -0.8150    1.4980 Ca        1 MOL      1.791470
    184 O25        -0.3750   -0.9550    3.7350 oh        1 MOL     -0.827286
    185 H90        -0.7160   -0.3580    4.3980 ho        1 MOL      0.397137
    186 H91        -0.5420   -1.8290    4.0880 ho        1 MOL      0.397137
    187 O26         0.4660   -3.4670    1.9740 oh        1 MOL     -0.827286
    188 H92         0.6600   -4.3190    1.5760 ho        1 MOL      0.397137
    189 H93        -0.0890   -3.6750    2.7300 ho        1 MOL      0.397137
@<TRIPOS>BOND
     1    1    2 1   
     2    1    4 1   
     3    1    5 1   
     4    1    6 1   
     5    2    3 2   
     6    2    7 1   
     7    7    8 1   
     8    7   15 1   
     9    8    9 1   
    10    8   11 1   
    11    8   16 1   
    12    9   10 2   
    13    9   19 1   
    14   11   12 1   
    15   11   17 1   
    16   11   18 1   
    17   12   13 1   
    18   12   14 1   
    19   19   20 1   
    20   19   28 1   
    21   20   21 1   
    22   20   23 1   
    23   20   29 1   
    24   21   22 2   
    25   21   41 1   
    26   23   24 1   
    27   23   30 1   
    28   23   31 1   
    29   24   25 1   
    30   24   32 1   
    31   24   33 1   
    32   25   26 1   
    33   25   34 1   
    34   25   35 1   
    35   26   27 1   
    36   26   36 1   
    37   26   37 1   
    38   27   38 1   
    39   27   39 1   
    40   27   40 1   
    41   41   42 1   
    42   41   49 1   
    43   42   43 1   
    44   42   45 1   
    45   42   50 1   
    46   43   44 2   
    47   43   53 1   
    48   45   46 1   
    49   45   51 1   
    50   45   52 1   
    51   46   47 1   
    52   46   48 1   
    53   53   54 1   
    54   53   57 1   
    55   54   55 1   
    56   54   58 1   
    57   54   59 1   
    58   55   56 2   
    59   55   60 1   
    60   60   61 1   
    61   60   68 1   
    62   61   62 1   
    63   61   64 1   
    64   61   69 1   
    65   62   63 2   
    66   62   72 1   
    67   64   65 1   
    68   64   70 1   
    69   64   71 1   
    70   65   66 1   
    71   65   67 1   
    72   72   73 1   
    73   72   76 1   
    74   73   74 1   
    75   73   77 1   
    76   73   78 1   
    77   74   75 2   
    78   74   79 1   
    79   79   80 1   
    80   79   86 1   
    81   80   81 1   
    82   80   83 1   
    83   80   87 1   
    84   81   82 2   
    85   81   93 1   
    86   83   84 1   
    87   83   85 1   
    88   83   88 1   
    89   84   90 1   
    90   84   91 1   
    91   84   92 1   
    92   85   89 1   
    93   93   94 1   
    94   93  101 1   
    95   94   95 1   
    96   94   97 1   
    97   94  102 1   
    98   95   96 2   
    99   95  112 1   
   100   97   98 1   
   101   97   99 1   
   102   97  103 1   
   103   98  100 1   
   104   98  104 1   
   105   98  105 1   
   106   99  106 1   
   107   99  107 1   
   108   99  108 1   
   109  100  109 1   
   110  100  110 1   
   111  100  111 1   
   112  112  113 1   
   113  112  119 1   
   114  113  114 1   
   115  113  116 1   
   116  113  120 1   
   117  114  115 2   
   118  114  126 1   
   119  116  117 1   
   120  116  118 1   
   121  116  121 1   
   122  117  123 1   
   123  117  124 1   
   124  117  125 1   
   125  118  122 1   
   126  126  127 1   
   127  126  133 1   
   128  127  128 1   
   129  127  130 1   
   130  127  134 1   
   131  128  129 2   
   132  128  140 1   
   133  130  131 1   
   134  130  132 1   
   135  130  135 1   
   136  131  137 1   
   137  131  138 1   
   138  131  139 1   
   139  132  136 1   
   140  140  141 1   
   141  140  149 1   
   142  141  142 1   
   143  141  144 1   
   144  141  150 1   
   145  142  143 2   
   146  142  162 1   
   147  144  145 1   
   148  144  151 1   
   149  144  152 1   
   150  145  146 1   
   151  145  153 1   
   152  145  154 1   
   153  146  147 1   
   154  146  155 1   
   155  146  156 1   
   156  147  148 1   
   157  147  157 1   
   158  147  158 1   
   159  148  159 1   
   160  148  160 1   
   161  148  161 1   
   162  162  163 1   
   163  162  171 1   
   164  163  164 1   
   165  163  166 1   
   166  163  172 1   
   167  164  165 2   
   168  164  177 1   
   169  166  167 1   
   170  166  173 1   
   171  166  174 1   
   172  167  168 1   
   173  167  175 1   
   174  167  176 1   
   175  168  169 1   
   176  168  170 1   
   177  177  178 1   
   178  177  182 1   
   179  178  179 1   
   180  178  180 1   
   181  178  181 1   
   182  184  185 1   
   183  184  186 1   
   184  187  188 1   
   185  187  189 1   
@<TRIPOS>SUBSTRUCTURE
     1 MOL         1 TEMP              0 ****  ****    0 ROOT
