@<TRIPOS>MOLECULE
MOL
  172   171     1     0     0
SMALL
resp


@<TRIPOS>ATOM
      1 C1          1.1170    4.4970    5.1400 c3        1 MOL     -0.315454
      2 C2          0.4660    4.2870    3.7020 c         1 MOL      0.689238
      3 O1          1.1320    4.1870    2.6490 o         1 MOL     -0.540708
      4 H1          0.6380    5.3410    5.6350 hc        1 MOL      0.075890
      5 H2          0.9750    3.5970    5.7390 hc        1 MOL      0.075890
      6 H3          2.1840    4.6980    5.0310 hc        1 MOL      0.075890
      7 N1         -0.8760    4.2320    3.7220 n         1 MOL     -0.622808
      8 C3         -1.6500    3.8810    2.5480 c3        1 MOL      0.322697
      9 C4         -1.7300    5.0170    1.5670 c         1 MOL      0.498630
     10 O2         -1.8390    6.1950    1.9900 o         1 MOL     -0.588816
     11 C5         -3.0270    3.3560    2.8610 c3        1 MOL     -0.322222
     12 C6         -3.7710    2.5050    1.7730 c         1 MOL      0.730674
     13 O3         -3.2250    2.1180    0.7490 o         1 MOL     -0.708323
     14 O4         -4.9310    2.1370    2.0520 o         1 MOL     -0.708323
     15 H4         -1.4060    4.4170    4.5670 hn        1 MOL      0.313036
     16 H5         -1.1890    2.9970    2.0910 h1        1 MOL      0.012191
     17 H6         -3.6590    4.2330    2.9940 hc        1 MOL      0.062226
     18 H7         -3.0100    2.7870    3.7890 hc        1 MOL      0.062226
     19 N2         -1.6390    4.6390    0.3020 n         1 MOL     -0.500298
     20 C7         -1.8880    5.5400   -0.8570 c3        1 MOL      0.325092
     21 C8         -2.8920    5.1210   -1.9380 c         1 MOL      0.500923
     22 O5         -3.0730    5.8380   -2.9650 o         1 MOL     -0.561208
     23 C9         -0.4640    5.8680   -1.3590 c3        1 MOL     -0.352955
     24 H8         -1.4530    3.6800    0.0190 hn        1 MOL      0.366702
     25 H9         -2.3300    6.4720   -0.5050 h1        1 MOL      0.010695
     26 H10         0.2330    6.1460   -0.5710 hc        1 MOL      0.084637
     27 H11         0.0530    4.9770   -1.7340 hc        1 MOL      0.084637
     28 H12        -0.6470    6.6580   -2.0830 hc        1 MOL      0.084637
     29 N3         -3.6960    4.0490   -1.7550 n         1 MOL     -0.557118
     30 C10        -4.6130    3.5080   -2.7600 c3        1 MOL      0.265023
     31 C11        -5.9020    2.9260   -2.2380 c         1 MOL      0.326957
     32 O6         -6.9490    2.9100   -2.9010 o         1 MOL     -0.559745
     33 C12        -3.8780    2.5990   -3.7530 c3        1 MOL     -0.136900
     34 C13        -3.2310    1.3760   -3.1540 c         1 MOL      0.676777
     35 O7         -3.6990    0.8190   -2.0960 o         1 MOL     -0.667440
     36 O8         -2.2500    0.9070   -3.8690 o         1 MOL     -0.667440
     37 H13        -3.5580    3.5640   -0.8750 hn        1 MOL      0.242674
     38 H14        -5.0090    4.2990   -3.3880 h1        1 MOL      0.025477
     39 H15        -3.0860    3.1410   -4.2700 hc        1 MOL      0.033994
     40 H16        -4.5960    2.2290   -4.4910 hc        1 MOL      0.033994
     41 N4         -5.8940    2.3350   -1.0570 n         1 MOL     -0.018350
     42 C14        -7.1160    1.7580   -0.4230 c3        1 MOL     -0.317075
     43 C15        -7.2950    0.3080   -0.8220 c         1 MOL      0.594308
     44 O9         -8.4370   -0.1610   -0.8020 o         1 MOL     -0.616203
     45 H17        -5.0270    2.4130   -0.5460 hn        1 MOL      0.110310
     46 H18        -8.0430    2.2700   -0.6680 h1        1 MOL      0.142552
     47 H19        -6.9780    1.8500    0.6560 h1        1 MOL      0.142552
     48 N5         -6.2740   -0.4770   -1.2390 n         1 MOL     -0.119337
     49 C16        -6.3260   -1.8240   -1.8780 c3        1 MOL      0.057151
     50 C17        -6.2410   -3.0200   -0.8900 c         1 MOL      0.278780
     51 O10        -6.3460   -4.2000   -1.2460 o         1 MOL     -0.473395
     52 C18        -5.2920   -1.9810   -3.0280 c3        1 MOL     -0.318078
     53 C19        -3.8750   -2.1240   -2.4620 c         1 MOL      0.515703
     54 N6         -2.8520   -2.3950   -3.2680 n         1 MOL     -0.503934
     55 O11        -3.6400   -2.0330   -1.3000 o         1 MOL     -0.424070
     56 H20        -5.3560   -0.0680   -1.3670 hn        1 MOL      0.016097
     57 H21        -7.2810   -1.8730   -2.3840 h1        1 MOL      0.095335
     58 H22        -5.3350   -1.0580   -3.6030 hc        1 MOL      0.111478
     59 H23        -5.4720   -2.8760   -3.6180 hc        1 MOL      0.111478
     60 H24        -3.1470   -2.5180   -4.2260 hn        1 MOL      0.282812
     61 H25        -1.9250   -2.5710   -2.9090 hn        1 MOL      0.282812
     62 N7         -6.0860   -2.6860    0.3940 n         1 MOL     -0.097758
     63 C20        -6.1420   -3.5140    1.5710 c3        1 MOL     -0.301719
     64 C21        -4.9050   -4.3470    1.8470 c         1 MOL      0.505287
     65 O12        -4.8990   -5.2680    2.6820 o         1 MOL     -0.587823
     66 H26        -6.0230   -1.6860    0.5380 hn        1 MOL      0.126609
     67 H27        -6.9270   -4.2720    1.4880 h1        1 MOL      0.135594
     68 H28        -6.4420   -2.8410    2.3770 h1        1 MOL      0.135594
     69 N8         -3.8710   -4.0910    1.0640 n         1 MOL     -0.094744
     70 C22        -2.5930   -4.6660    1.1410 c3        1 MOL     -0.219021
     71 C23        -1.6140   -3.4440    1.2980 c         1 MOL      0.500612
     72 O13        -1.6260   -2.4610    0.5560 o         1 MOL     -0.387533
     73 C24        -2.1720   -5.5530   -0.0410 c3        1 MOL      0.448253
     74 C25        -2.8770   -6.9190   -0.0560 c3        1 MOL     -0.545060
     75 O14        -2.4610   -4.8760   -1.2580 oh        1 MOL     -0.555803
     76 H29        -3.9100   -3.1840    0.6220 hn        1 MOL      0.195824
     77 H30        -2.5700   -5.2900    2.0350 h1        1 MOL      0.094373
     78 H31        -1.1050   -5.6890    0.1650 h1        1 MOL     -0.020862
     79 H32        -2.1470   -3.9820   -1.1080 ho        1 MOL      0.269483
     80 H33        -3.9420   -6.6850   -0.0020 hc        1 MOL      0.148310
     81 H34        -2.7670   -7.3310   -1.0560 hc        1 MOL      0.148310
     82 H35        -2.4350   -7.6250    0.6530 hc        1 MOL      0.148310
     83 N9         -0.6930   -3.4920    2.2770 n         1 MOL     -0.491674
     84 C26         0.4270   -2.4930    2.3700 c3        1 MOL     -0.004228
     85 C27         1.4360   -2.9090    1.2380 c         1 MOL      0.483172
     86 O15         2.0050   -3.9770    1.2350 o         1 MOL     -0.558745
     87 C28         1.0120   -2.5640    3.7680 c3        1 MOL      0.093217
     88 C29         0.0350   -2.3160    4.9690 c3        1 MOL     -0.059791
     89 C30         2.2750   -1.6370    3.8920 c3        1 MOL     -0.188626
     90 C31        -0.6110   -3.6000    5.5810 c3        1 MOL     -0.167706
     91 H36        -0.7050   -4.2240    2.9810 hn        1 MOL      0.295542
     92 H37         0.0480   -1.4790    2.2320 h1        1 MOL      0.122282
     93 H38         1.3800   -3.5730    3.9460 hc        1 MOL      0.022001
     94 H39        -0.6310   -1.4850    4.7450 hc        1 MOL      0.034414
     95 H40         0.5910   -1.9170    5.8220 hc        1 MOL      0.034414
     96 H41         2.0950   -0.6040    4.2080 hc        1 MOL      0.042153
     97 H42         2.9110   -2.0950    4.6490 hc        1 MOL      0.042153
     98 H43         2.7930   -1.5700    2.9290 hc        1 MOL      0.042153
     99 H44         0.1640   -4.3550    5.7790 hc        1 MOL      0.041006
    100 H45        -1.1240   -3.4180    6.5170 hc        1 MOL      0.041006
    101 H46        -1.2500   -4.0900    4.8470 hc        1 MOL      0.041006
    102 N10         1.5070   -1.9720    0.2410 n         1 MOL     -0.007683
    103 C32         2.3710   -2.1070   -0.8640 c3        1 MOL      0.064190
    104 C33         3.8320   -1.7630   -0.5220 c         1 MOL      0.445542
    105 O16         4.2230   -1.3270    0.6050 o         1 MOL     -0.410027
    106 C34         1.8990   -1.3390   -2.0640 c3        1 MOL     -0.344272
    107 C35         0.3810   -1.5440   -2.3830 c         1 MOL      0.810659
    108 O17        -0.4860   -0.8820   -1.8280 o         1 MOL     -0.691444
    109 O18         0.0730   -2.4790   -3.1920 o         1 MOL     -0.691444
    110 H47         0.8780   -1.1820    0.3240 hn        1 MOL     -0.105694
    111 H48         2.2750   -3.1650   -1.1120 h1        1 MOL      0.052552
    112 H49         2.5160   -1.5660   -2.9330 hc        1 MOL      0.072244
    113 H50         2.1120   -0.3120   -1.8000 hc        1 MOL      0.072244
    114 N11         4.7700   -2.0190   -1.4610 n         1 MOL     -0.657582
    115 C36         6.2310   -1.8250   -1.2940 c3        1 MOL      0.493182
    116 C37         6.6640   -0.3730   -0.9210 c         1 MOL      0.480285
    117 O19         7.4020   -0.2490   -0.0150 o         1 MOL     -0.508592
    118 C38         6.9840   -2.4130   -2.4830 c3        1 MOL     -0.250493
    119 C39         8.4260   -2.1700   -2.5420 ca        1 MOL      0.174819
    120 C40         9.2200   -2.3390   -1.3910 ca        1 MOL     -0.228969
    121 C41         8.9500   -1.5760   -3.6630 ca        1 MOL     -0.228969
    122 C42        10.5590   -1.8810   -1.3250 ca        1 MOL     -0.053580
    123 C43        10.2160   -1.0510   -3.6160 ca        1 MOL     -0.053580
    124 C44        11.0770   -1.2470   -2.4610 ca        1 MOL     -0.198573
    125 H51         4.4090   -2.4650   -2.2850 hn        1 MOL      0.317803
    126 H52         6.5270   -2.4510   -0.4450 h1        1 MOL      0.001852
    127 H53         6.5270   -2.0190   -3.3900 hc        1 MOL      0.054951
    128 H54         6.8840   -3.4870   -2.3170 hc        1 MOL      0.054951
    129 H55         8.8340   -2.7050   -0.4530 ha        1 MOL      0.131197
    130 H56         8.4320   -1.4010   -4.5980 ha        1 MOL      0.131197
    131 H57        11.0080   -2.0340   -0.3540 ha        1 MOL      0.102285
    132 H58        10.6750   -0.5190   -4.4400 ha        1 MOL      0.102285
    133 H59        12.0710   -0.8350   -2.4060 ha        1 MOL      0.118868
    134 N12         6.1430    0.6940   -1.5410 n         1 MOL     -0.290374
    135 C45         6.5620    2.0380   -1.0660 c3        1 MOL      0.089310
    136 C46         5.8860    2.4200    0.2580 c         1 MOL      0.279163
    137 O20         6.3310    3.2920    0.9860 o         1 MOL     -0.518759
    138 C47         6.2290    3.0220   -2.1860 c3        1 MOL     -0.180394
    139 C48         5.0900    2.2770   -2.8510 c3        1 MOL      0.063211
    140 C49         5.3320    0.7660   -2.7620 c3        1 MOL     -0.020255
    141 H60         7.6430    2.0340   -0.9340 h1        1 MOL      0.070402
    142 H61         6.0660    3.9810   -1.6910 hc        1 MOL      0.074260
    143 H62         7.1500    3.1080   -2.7820 hc        1 MOL      0.074260
    144 H63         4.1870    2.4710   -2.2660 hc        1 MOL     -0.003643
    145 H64         5.0370    2.5430   -3.9070 hc        1 MOL     -0.003643
    146 H65         4.3420    0.3160   -2.7110 h1        1 MOL      0.047350
    147 H66         5.7990    0.3310   -3.6510 h1        1 MOL      0.047350
    148 N13         4.7880    1.7780    0.5890 n         1 MOL     -0.001211
    149 C50         4.0250    1.9700    1.8510 c3        1 MOL     -0.151258
    150 C51         4.7420    1.3500    3.0590 c         1 MOL      0.417750
    151 O21         4.6650    1.8370    4.2220 o         1 MOL     -0.564384
    152 C52         2.5510    1.5310    1.6490 c3        1 MOL      0.064326
    153 C53         1.8540    2.0570    0.4310 c3        1 MOL     -0.318569
    154 C54         0.4040    1.4870    0.3550 c         1 MOL      0.868335
    155 O22         0.1130    0.4080    0.8600 o         1 MOL     -0.815072
    156 O23        -0.4960    2.0550   -0.2880 o         1 MOL     -0.815072
    157 H67         4.5200    1.0130   -0.0070 hn        1 MOL      0.228838
    158 H68         3.9540    3.0470    2.0230 h1        1 MOL      0.111553
    159 H69         2.0250    1.9680    2.4970 hc        1 MOL      0.030594
    160 H70         2.4130    0.4520    1.7340 hc        1 MOL      0.030594
    161 H71         2.4540    1.5800   -0.3400 hc        1 MOL      0.111327
    162 H72         1.8710    3.1440    0.4030 hc        1 MOL      0.111327
    163 N14         5.3950    0.2360    2.8010 n         1 MOL      0.074726
    164 C55         6.2940   -0.4760    3.7010 c3        1 MOL     -0.192697
    165 H73         6.3620   -1.5190    3.3950 h1        1 MOL      0.074417
    166 H74         7.2830   -0.0210    3.6630 h1        1 MOL      0.074417
    167 H75         5.9080   -0.4210    4.7190 h1        1 MOL      0.074417
    168 H76         5.2670   -0.0370    1.8330 hn        1 MOL     -0.078985
    169 Ca1        -2.2020   -0.0140   -0.1670 Ca        1 MOL      1.720119
    170 O24        -3.6970   -1.0390    1.7800 oh        1 MOL     -0.999753
    171 H77        -4.5990   -0.7590    1.9430 ho        1 MOL      0.466930
    172 H78        -3.2050   -0.7150    2.5280 ho        1 MOL      0.466930
@<TRIPOS>BOND
     1    1    2 1   
     2    1    4 1   
     3    1    5 1   
     4    1    6 1   
     5    2    3 2   
     6    2    7 1   
     7    7    8 1   
     8    7   15 1   
     9    8    9 1   
    10    8   11 1   
    11    8   16 1   
    12    9   10 2   
    13    9   19 1   
    14   11   12 1   
    15   11   17 1   
    16   11   18 1   
    17   12   13 1   
    18   12   14 1   
    19   19   20 1   
    20   19   24 1   
    21   20   21 1   
    22   20   23 1   
    23   20   25 1   
    24   21   22 2   
    25   21   29 1   
    26   23   26 1   
    27   23   27 1   
    28   23   28 1   
    29   29   30 1   
    30   29   37 1   
    31   30   31 1   
    32   30   33 1   
    33   30   38 1   
    34   31   32 2   
    35   31   41 1   
    36   33   34 1   
    37   33   39 1   
    38   33   40 1   
    39   34   35 1   
    40   34   36 1   
    41   41   42 1   
    42   41   45 1   
    43   42   43 1   
    44   42   46 1   
    45   42   47 1   
    46   43   44 2   
    47   43   48 1   
    48   48   49 1   
    49   48   56 1   
    50   49   50 1   
    51   49   52 1   
    52   49   57 1   
    53   50   51 2   
    54   50   62 1   
    55   52   53 1   
    56   52   58 1   
    57   52   59 1   
    58   53   54 1   
    59   53   55 2   
    60   54   60 1   
    61   54   61 1   
    62   62   63 1   
    63   62   66 1   
    64   63   64 1   
    65   63   67 1   
    66   63   68 1   
    67   64   65 2   
    68   64   69 1   
    69   69   70 1   
    70   69   76 1   
    71   70   71 1   
    72   70   73 1   
    73   70   77 1   
    74   71   72 2   
    75   71   83 1   
    76   73   74 1   
    77   73   75 1   
    78   73   78 1   
    79   74   80 1   
    80   74   81 1   
    81   74   82 1   
    82   75   79 1   
    83   83   84 1   
    84   83   91 1   
    85   84   85 1   
    86   84   87 1   
    87   84   92 1   
    88   85   86 2   
    89   85  102 1   
    90   87   88 1   
    91   87   89 1   
    92   87   93 1   
    93   88   90 1   
    94   88   94 1   
    95   88   95 1   
    96   89   96 1   
    97   89   97 1   
    98   89   98 1   
    99   90   99 1   
   100   90  100 1   
   101   90  101 1   
   102  102  103 1   
   103  102  110 1   
   104  103  104 1   
   105  103  106 1   
   106  103  111 1   
   107  104  105 2   
   108  104  114 1   
   109  106  107 1   
   110  106  112 1   
   111  106  113 1   
   112  107  108 1   
   113  107  109 1   
   114  114  115 1   
   115  114  125 1   
   116  115  116 1   
   117  115  118 1   
   118  115  126 1   
   119  116  117 2   
   120  116  134 1   
   121  118  119 1   
   122  118  127 1   
   123  118  128 1   
   124  119  120 ar  
   125  119  121 ar  
   126  120  122 ar  
   127  120  129 1   
   128  121  123 ar  
   129  121  130 1   
   130  122  124 ar  
   131  122  131 1   
   132  123  124 ar  
   133  123  132 1   
   134  124  133 1   
   135  134  135 1   
   136  134  140 1   
   137  135  136 1   
   138  135  138 1   
   139  135  141 1   
   140  136  137 2   
   141  136  148 1   
   142  138  139 1   
   143  138  142 1   
   144  138  143 1   
   145  139  140 1   
   146  139  144 1   
   147  139  145 1   
   148  140  146 1   
   149  140  147 1   
   150  148  149 1   
   151  148  157 1   
   152  149  150 1   
   153  149  152 1   
   154  149  158 1   
   155  150  151 2   
   156  150  163 1   
   157  152  153 1   
   158  152  159 1   
   159  152  160 1   
   160  153  154 1   
   161  153  161 1   
   162  153  162 1   
   163  154  155 1   
   164  154  156 1   
   165  163  164 1   
   166  163  168 1   
   167  164  165 1   
   168  164  166 1   
   169  164  167 1   
   170  170  171 1   
   171  170  172 1   
@<TRIPOS>SUBSTRUCTURE
     1 MOL         1 TEMP              0 ****  ****    0 ROOT
