@<TRIPOS>MOLECULE
MOL
  179   176     1     0     0
SMALL
resp


@<TRIPOS>ATOM
      1 C1          1.0840    2.9500    6.2800 c3        1 MOL     -0.310133
      2 C2          0.6510    2.5500    4.7830 c         1 MOL      0.689981
      3 O1          1.4950    2.5440    3.8680 o         1 MOL     -0.578523
      4 H1          1.1060    4.0350    6.3740 hc        1 MOL      0.076826
      5 H2          0.3660    2.5390    6.9890 hc        1 MOL      0.076826
      6 H3          2.0750    2.5480    6.4920 hc        1 MOL      0.076826
      7 N1         -0.6070    2.3190    4.6170 n         1 MOL     -0.594598
      8 C3         -1.1730    2.1630    3.2230 c3        1 MOL     -0.050673
      9 C4         -1.4560    3.5300    2.5260 c         1 MOL      0.683724
     10 O2         -2.2760    4.2590    3.0000 o         1 MOL     -0.520052
     11 C5         -2.3520    1.2060    3.2590 c3        1 MOL     -0.061801
     12 C6         -2.9800    0.8070    1.9170 c         1 MOL      0.503720
     13 O3         -2.5810    1.3520    0.8650 o         1 MOL     -0.636071
     14 O4         -3.8680   -0.0590    1.8940 o         1 MOL     -0.636071
     15 H4         -1.2770    2.4770    5.3510 hn        1 MOL      0.348190
     16 H5         -0.4010    1.6860    2.6200 h1        1 MOL      0.038152
     17 H6         -3.1510    1.6520    3.8400 hc        1 MOL      0.042810
     18 H7         -2.0830    0.2810    3.7560 hc        1 MOL      0.042810
     19 N2         -0.6460    3.7900    1.3920 n         1 MOL     -0.436961
     20 C7         -0.6680    5.0690    0.6570 c3        1 MOL     -0.053447
     21 C8         -2.0560    5.3620    0.0440 c         1 MOL      0.332489
     22 O5         -2.5860    6.3950    0.3320 o         1 MOL     -0.532717
     23 C9          0.4030    5.0550   -0.4790 c3        1 MOL      0.034889
     24 C10         0.4020    6.4950   -0.9310 c3        1 MOL      0.324688
     25 C11         1.5170    6.6990   -1.9770 c3        1 MOL     -0.237091
     26 C12         1.5030    8.1250   -2.5310 c3        1 MOL      0.256668
     27 N3          2.7030    8.3820   -3.2960 n4        1 MOL     -0.409945
     28 H8          0.0080    3.0800    1.1050 hn        1 MOL      0.246486
     29 H9         -0.3830    5.8530    1.3520 h1        1 MOL      0.104563
     30 H10         0.0600    4.4110   -1.2950 hc        1 MOL     -0.000815
     31 H11         1.3630    4.8700   -0.0060 hc        1 MOL     -0.000815
     32 H12         0.5180    7.2410   -0.1550 hc        1 MOL     -0.071305
     33 H13        -0.5200    6.6570   -1.4880 hc        1 MOL     -0.071305
     34 H14         1.3470    5.9750   -2.7730 hc        1 MOL      0.040804
     35 H15         2.4970    6.5610   -1.5260 hc        1 MOL      0.040804
     36 H16         1.4390    8.8270   -1.6960 hx        1 MOL      0.037646
     37 H17         0.6650    8.4930   -3.1240 hx        1 MOL      0.037646
     38 H18         3.5050    8.1630   -2.7210 hn        1 MOL      0.330243
     39 H19         2.7570    7.8020   -4.1230 hn        1 MOL      0.330243
     40 H20         2.8400    9.3400   -3.5780 hn        1 MOL      0.330243
     41 N4         -2.7160    4.4310   -0.6410 n         1 MOL      0.042566
     42 C13        -4.0240    4.6170   -1.2130 c3        1 MOL     -0.075134
     43 C14        -5.2130    3.9320   -0.4420 c         1 MOL      0.429356
     44 O6         -6.4230    4.1740   -0.7220 o         1 MOL     -0.542349
     45 C15        -3.9750    4.2410   -2.6750 c3        1 MOL     -0.061810
     46 C16        -3.5280    2.7900   -2.9300 c         1 MOL      0.705600
     47 O7         -3.4680    2.5230   -4.1660 o         1 MOL     -0.713527
     48 O8         -3.2090    1.9980   -2.0210 o         1 MOL     -0.713527
     49 H21        -2.3110    3.5190   -0.8240 hn        1 MOL      0.032360
     50 H22        -4.2310    5.6890   -1.1880 h1        1 MOL      0.085674
     51 H23        -3.2210    4.8730   -3.1380 hc        1 MOL      0.024708
     52 H24        -4.9380    4.4400   -3.1500 hc        1 MOL      0.024708
     53 N5         -4.8930    3.1270    0.5500 n         1 MOL     -0.155415
     54 C17        -5.8670    2.4870    1.3980 c3        1 MOL     -0.074046
     55 C18        -6.6150    1.2820    0.6720 c         1 MOL      0.481562
     56 O9         -7.7760    0.9900    0.9900 o         1 MOL     -0.564748
     57 H25        -3.9250    2.9140    0.7630 hn        1 MOL      0.152903
     58 H26        -6.5620    3.1400    1.9060 h1        1 MOL      0.085001
     59 H27        -5.3400    2.0360    2.2370 h1        1 MOL      0.085001
     60 N6         -6.0160    0.5950   -0.3130 n         1 MOL     -0.200863
     61 C19        -6.5330   -0.5280   -1.0530 c3        1 MOL      0.060758
     62 C20        -6.4520   -1.8660   -0.1930 c         1 MOL      0.211156
     63 O10        -7.1030   -2.8380   -0.5590 o         1 MOL     -0.466196
     64 C21        -5.8940   -0.5130   -2.4440 c3        1 MOL     -0.330160
     65 C22        -4.5720   -1.2090   -2.4560 c         1 MOL      0.940970
     66 N7         -4.3530   -2.0400   -3.4620 n         1 MOL     -0.943783
     67 O11        -3.6870   -0.8590   -1.6930 o         1 MOL     -0.686745
     68 H28        -5.0380    0.8210   -0.4380 hn        1 MOL      0.099840
     69 H29        -7.5980   -0.4430   -1.2890 h1        1 MOL      0.118098
     70 H30        -5.6680    0.5080   -2.7490 hc        1 MOL      0.116712
     71 H31        -6.5520   -1.0010   -3.1640 hc        1 MOL      0.116712
     72 H32        -5.0810   -2.4620   -4.0360 hn        1 MOL      0.405857
     73 H33        -3.4250   -2.3560   -3.6820 hn        1 MOL      0.405857
     74 N8         -5.7000   -1.8920    0.9470 n         1 MOL      0.066965
     75 C23        -5.7050   -3.0030    1.9180 c3        1 MOL     -0.198349
     76 C24        -4.3110   -3.6720    1.9240 c         1 MOL      0.539462
     77 O12        -4.2380   -4.8630    2.2940 o         1 MOL     -0.551158
     78 H34        -5.3950   -1.0260    1.3550 hn        1 MOL      0.174008
     79 H35        -6.5030   -3.7230    1.7640 h1        1 MOL      0.100415
     80 H36        -5.8470   -2.4750    2.8580 h1        1 MOL      0.100415
     81 N9         -3.3460   -3.0850    1.2710 n         1 MOL     -0.437068
     82 C25        -1.9940   -3.6690    1.0820 c3        1 MOL      0.429520
     83 C26        -0.8380   -2.6510    1.0490 c         1 MOL      0.203105
     84 O13        -1.0330   -1.5030    0.6240 o         1 MOL     -0.388846
     85 C27        -1.8560   -4.3920   -0.2170 c3        1 MOL     -0.014987
     86 C28        -3.0370   -5.3010   -0.5820 ca        1 MOL     -0.170966
     87 C29        -4.1560   -4.8080   -1.2850 ca        1 MOL      0.005526
     88 C30        -2.9850   -6.6540   -0.3020 ca        1 MOL      0.005526
     89 C31        -5.1680   -5.6670   -1.7000 ca        1 MOL     -0.424135
     90 C32        -4.0630   -7.4970   -0.6270 ca        1 MOL     -0.424135
     91 C33        -5.1590   -7.0060   -1.3370 ca        1 MOL      0.560220
     92 O14        -6.1300   -7.8900   -1.6730 oh        1 MOL     -0.557879
     93 H37        -3.5550   -2.1970    0.8360 hn        1 MOL      0.180766
     94 H38        -1.8770   -4.3980    1.8870 h1        1 MOL     -0.026023
     95 H39        -0.9190   -4.9360   -0.0830 hc        1 MOL      0.016749
     96 H40        -1.7850   -3.6960   -1.0540 hc        1 MOL      0.016749
     97 H41        -4.2550   -3.8000   -1.6640 ha        1 MOL      0.100247
     98 H42        -2.1220   -7.0730    0.1760 ha        1 MOL      0.100247
     99 H43        -6.0600   -5.3010   -2.1990 ha        1 MOL      0.163244
    100 H44        -4.1350   -8.5300   -0.3000 ha        1 MOL      0.163244
    101 H45        -6.0280   -8.7020   -1.1780 ho        1 MOL      0.375812
    102 N10         0.3780   -3.1200    1.4490 n         1 MOL     -0.297374
    103 C34         1.6630   -2.4010    1.2150 c3        1 MOL     -0.190758
    104 C35         2.6780   -3.2010    0.4900 c         1 MOL      0.538077
    105 O15         2.7670   -4.4240    0.6730 o         1 MOL     -0.550931
    106 C36         2.2170   -1.7820    2.5290 c3        1 MOL     -0.079661
    107 C37         2.5480   -2.8270    3.5710 c3        1 MOL     -0.107001
    108 C38         1.1660   -0.9250    3.1330 c3        1 MOL     -0.063205
    109 C39         3.2490   -2.1920    4.8430 c3        1 MOL     -0.217762
    110 H46         0.4150   -4.0440    1.8640 hn        1 MOL      0.280331
    111 H47         1.4770   -1.5380    0.5820 h1        1 MOL      0.216344
    112 H48         3.1440   -1.2090    2.4090 hc        1 MOL      0.110058
    113 H49         3.1890   -3.5880    3.1250 hc        1 MOL      0.059146
    114 H50         1.6420   -3.3200    3.9010 hc        1 MOL      0.059146
    115 H51         0.3430   -1.5380    3.5130 hc        1 MOL      0.057707
    116 H52         1.6210   -0.4320    3.9970 hc        1 MOL      0.057707
    117 H53         0.8400   -0.1870    2.3990 hc        1 MOL      0.057707
    118 H54         3.6110   -3.0320    5.4380 hc        1 MOL      0.062431
    119 H55         4.0270   -1.5040    4.5010 hc        1 MOL      0.062431
    120 H56         2.5230   -1.7660    5.5380 hc        1 MOL      0.062431
    121 N11         3.3600   -2.6520   -0.4830 n         1 MOL     -0.303496
    122 C40         4.5030   -3.3070   -1.2320 c3        1 MOL      0.040084
    123 C41         5.8780   -2.9840   -0.5810 c         1 MOL      0.529842
    124 O16         5.9470   -2.1870    0.3570 o         1 MOL     -0.401541
    125 C42         4.4950   -2.8770   -2.6970 c3        1 MOL      0.110304
    126 O17         4.7560   -1.5270   -2.8210 oh        1 MOL     -0.480326
    127 H57         3.1270   -1.7380   -0.8330 hn        1 MOL      0.159075
    128 H58         4.3530   -4.3850   -1.2670 h1        1 MOL      0.059895
    129 H59         3.5890   -3.1680   -3.2250 h1        1 MOL      0.016334
    130 H60         5.2770   -3.5010   -3.1340 h1        1 MOL      0.016334
    131 H61         4.2220   -1.2120   -3.5590 ho        1 MOL      0.389981
    132 N12         6.9100   -3.6080   -1.0850 n         1 MOL     -0.525285
    133 C43         8.2360   -3.3010   -0.6610 c3        1 MOL      0.269508
    134 C44         8.6590   -1.8150   -0.8250 c         1 MOL      0.457721
    135 O18         9.1780   -1.1850    0.0780 o         1 MOL     -0.515744
    136 C45         9.3460   -4.1830   -1.2150 c3        1 MOL     -0.428268
    137 H62         6.8220   -4.2300   -1.8670 hn        1 MOL      0.328793
    138 H63         8.2460   -3.4160    0.4230 h1        1 MOL      0.038133
    139 H64        10.1590   -4.1040   -0.5000 hc        1 MOL      0.118466
    140 H65         8.8630   -5.1640   -1.2430 hc        1 MOL      0.118466
    141 H66         9.6760   -3.9110   -2.2140 hc        1 MOL      0.118466
    142 N13         8.2840   -1.2570   -1.9460 n         1 MOL     -0.382765
    143 C46         8.4770    0.1700   -2.1460 c3        1 MOL      0.181897
    144 C47         7.5260    1.1170   -1.2820 c         1 MOL      0.365267
    145 O19         7.9450    2.2540   -1.0430 o         1 MOL     -0.520222
    146 C48         8.2580    0.3300   -3.6080 c3        1 MOL     -0.166761
    147 H67         7.7060   -1.6530   -2.6620 hn        1 MOL      0.258580
    148 H68         9.5030    0.4590   -1.8850 h1        1 MOL      0.076143
    149 H69         8.4520    1.3590   -3.9080 hc        1 MOL      0.035755
    150 H70         8.9340   -0.3930   -4.0530 hc        1 MOL      0.035755
    151 H71         7.2350    0.1320   -3.9070 hc        1 MOL      0.035755
    152 N14         6.3980    0.5830   -0.7880 n         1 MOL      0.061683
    153 C49         5.4380    1.3260    0.0300 c3        1 MOL     -0.411964
    154 C50         5.8050    1.2980    1.5120 c         1 MOL      0.543994
    155 O20         5.4450    2.1440    2.3040 o         1 MOL     -0.553140
    156 C51         4.0000    0.7250   -0.2430 c3        1 MOL      0.222043
    157 C52         2.7740    1.6060   -0.0200 c3        1 MOL      0.144626
    158 C53         1.3550    1.0410   -0.4050 c         1 MOL      0.410313
    159 O21         0.3820    1.7110    0.0030 o         1 MOL     -0.641707
    160 O22         1.1460    0.0590   -1.1340 o         1 MOL     -0.641707
    161 H72         6.1390   -0.3580   -1.0620 hn        1 MOL     -0.125635
    162 H73         5.4800    2.3540   -0.3410 h1        1 MOL      0.148728
    163 H74         3.9550   -0.1740    0.3710 hc        1 MOL     -0.039605
    164 H75         3.8090    0.6450   -1.3070 hc        1 MOL     -0.039605
    165 H76         2.8840    2.5700   -0.5190 hc        1 MOL     -0.003358
    166 H77         2.7510    1.8750    1.0290 hc        1 MOL     -0.003358
    167 N15         6.5440    0.2870    1.9400 n         1 MOL     -0.078828
    168 C54         7.1180    0.1460    3.2780 c3        1 MOL     -0.219463
    169 H78         7.0670    1.1040    3.7980 h1        1 MOL      0.098508
    170 H79         6.5560   -0.6010    3.8390 h1        1 MOL      0.098508
    171 H80         8.1590   -0.1680    3.1960 h1        1 MOL      0.098508
    172 H81         6.6740   -0.4090    1.2150 hn        1 MOL      0.114636
    173 Ca1        -1.5510    0.3480   -1.2300 Ca        1 MOL      1.773649
    174 O23        -1.4360    0.6840   -3.8340 oh        1 MOL     -0.925708
    175 H82        -0.9430    0.5400   -4.6450 ho        1 MOL      0.427725
    176 H83        -2.1480    1.2680   -4.0820 ho        1 MOL      0.427725
    177 O24        -0.9240   -1.8630   -2.6740 oh        1 MOL     -0.925708
    178 H84        -0.0180   -1.7910   -2.9790 ho        1 MOL      0.427725
    179 H85        -1.3260   -2.4950   -3.2660 ho        1 MOL      0.427725
@<TRIPOS>BOND
     1    1    2 1   
     2    1    4 1   
     3    1    5 1   
     4    1    6 1   
     5    2    3 2   
     6    2    7 1   
     7    7    8 1   
     8    7   15 1   
     9    8    9 1   
    10    8   11 1   
    11    8   16 1   
    12    9   10 2   
    13    9   19 1   
    14   11   12 1   
    15   11   17 1   
    16   11   18 1   
    17   12   13 1   
    18   12   14 1   
    19   19   20 1   
    20   19   28 1   
    21   20   21 1   
    22   20   23 1   
    23   20   29 1   
    24   21   22 2   
    25   21   41 1   
    26   23   24 1   
    27   23   30 1   
    28   23   31 1   
    29   24   25 1   
    30   24   32 1   
    31   24   33 1   
    32   25   26 1   
    33   25   34 1   
    34   25   35 1   
    35   26   27 1   
    36   26   36 1   
    37   26   37 1   
    38   27   38 1   
    39   27   39 1   
    40   27   40 1   
    41   41   42 1   
    42   41   49 1   
    43   42   43 1   
    44   42   45 1   
    45   42   50 1   
    46   43   44 2   
    47   43   53 1   
    48   45   46 1   
    49   45   51 1   
    50   45   52 1   
    51   46   47 1   
    52   46   48 1   
    53   53   54 1   
    54   53   57 1   
    55   54   55 1   
    56   54   58 1   
    57   54   59 1   
    58   55   56 2   
    59   55   60 1   
    60   60   61 1   
    61   60   68 1   
    62   61   62 1   
    63   61   64 1   
    64   61   69 1   
    65   62   63 2   
    66   62   74 1   
    67   64   65 1   
    68   64   70 1   
    69   64   71 1   
    70   65   66 1   
    71   65   67 2   
    72   66   72 1   
    73   66   73 1   
    74   74   75 1   
    75   74   78 1   
    76   75   76 1   
    77   75   79 1   
    78   75   80 1   
    79   76   77 2   
    80   76   81 1   
    81   81   82 1   
    82   81   93 1   
    83   82   83 1   
    84   82   85 1   
    85   82   94 1   
    86   83   84 2   
    87   83  102 1   
    88   85   86 1   
    89   85   95 1   
    90   85   96 1   
    91   86   87 ar  
    92   86   88 ar  
    93   87   89 ar  
    94   87   97 1   
    95   88   90 ar  
    96   88   98 1   
    97   89   91 ar  
    98   89   99 1   
    99   90   91 ar  
   100   90  100 1   
   101   91   92 1   
   102   92  101 1   
   103  102  103 1   
   104  102  110 1   
   105  103  104 1   
   106  103  106 1   
   107  103  111 1   
   108  104  105 2   
   109  104  121 1   
   110  106  107 1   
   111  106  108 1   
   112  106  112 1   
   113  107  109 1   
   114  107  113 1   
   115  107  114 1   
   116  108  115 1   
   117  108  116 1   
   118  108  117 1   
   119  109  118 1   
   120  109  119 1   
   121  109  120 1   
   122  121  122 1   
   123  121  127 1   
   124  122  123 1   
   125  122  125 1   
   126  122  128 1   
   127  123  124 2   
   128  123  132 1   
   129  125  126 1   
   130  125  129 1   
   131  125  130 1   
   132  126  131 1   
   133  132  133 1   
   134  132  137 1   
   135  133  134 1   
   136  133  136 1   
   137  133  138 1   
   138  134  135 2   
   139  134  142 1   
   140  136  139 1   
   141  136  140 1   
   142  136  141 1   
   143  142  143 1   
   144  142  147 1   
   145  143  144 1   
   146  143  146 1   
   147  143  148 1   
   148  144  145 2   
   149  144  152 1   
   150  146  149 1   
   151  146  150 1   
   152  146  151 1   
   153  152  153 1   
   154  152  161 1   
   155  153  154 1   
   156  153  156 1   
   157  153  162 1   
   158  154  155 2   
   159  154  167 1   
   160  156  157 1   
   161  156  163 1   
   162  156  164 1   
   163  157  158 1   
   164  157  165 1   
   165  157  166 1   
   166  158  159 1   
   167  158  160 1   
   168  167  168 1   
   169  167  172 1   
   170  168  169 1   
   171  168  170 1   
   172  168  171 1   
   173  174  175 1   
   174  174  176 1   
   175  177  178 1   
   176  177  179 1   
@<TRIPOS>SUBSTRUCTURE
     1 MOL         1 TEMP              0 ****  ****    0 ROOT
