@<TRIPOS>MOLECULE
MOL
  172   171     1     0     0
SMALL
resp


@<TRIPOS>ATOM
      1 C1          0.1450   -3.3820    5.9560 c3        1 MOL     -0.429383
      2 C2          0.5470   -3.2650    4.4490 c         1 MOL      0.730086
      3 O1         -0.0360   -3.8750    3.5740 o         1 MOL     -0.600246
      4 H1         -0.9240   -3.1950    6.0610 hc        1 MOL      0.106653
      5 H2          0.3750   -4.3840    6.3170 hc        1 MOL      0.106653
      6 H3          0.7010   -2.6490    6.5390 hc        1 MOL      0.106653
      7 N1          1.6520   -2.6070    4.1370 n         1 MOL     -0.627981
      8 C3          2.0470   -2.2450    2.7260 c3        1 MOL      0.174663
      9 C4          2.6620   -3.5330    2.0280 c         1 MOL      0.683661
     10 O2          3.6310   -4.0150    2.5600 o         1 MOL     -0.606011
     11 C5          3.0800   -1.0720    2.8840 c3        1 MOL     -0.173040
     12 C6          3.7640   -0.6540    1.6250 c         1 MOL      0.673659
     13 O3          3.4100   -1.0710    0.4700 o         1 MOL     -0.691870
     14 O4          4.6330    0.2640    1.6990 o         1 MOL     -0.691870
     15 H4          2.1950   -2.2010    4.8840 hn        1 MOL      0.308722
     16 H5          1.1540   -1.9350    2.1760 h1        1 MOL      0.027496
     17 H6          3.8160   -1.4780    3.5800 hc        1 MOL      0.050463
     18 H7          2.5930   -0.1860    3.2870 hc        1 MOL      0.050463
     19 N2          2.1050   -3.9860    0.8830 n         1 MOL     -0.418630
     20 C7          2.4500   -5.2860    0.2410 c3        1 MOL      0.044232
     21 C8          3.4890   -5.2240   -0.8980 c         1 MOL      0.478022
     22 O5          4.1510   -6.1910   -1.1550 o         1 MOL     -0.564436
     23 C9          1.1260   -5.8870   -0.3240 c3        1 MOL     -0.226715
     24 H8          1.3510   -3.4270    0.5370 hn        1 MOL      0.260607
     25 H9          2.8200   -6.0060    0.9740 h1        1 MOL      0.076359
     26 H10         0.6550   -5.2850   -1.0990 hc        1 MOL      0.064714
     27 H11         1.2550   -6.9050   -0.6700 hc        1 MOL      0.064714
     28 H12         0.3170   -5.8140    0.4090 hc        1 MOL      0.064714
     29 N3          3.6650   -4.0450   -1.5350 n         1 MOL     -0.268915
     30 C10         4.8510   -3.8140   -2.4310 c3        1 MOL     -0.016763
     31 C11         5.9320   -2.9830   -1.6500 c         1 MOL      0.310661
     32 O6          6.9550   -2.6740   -2.3380 o         1 MOL     -0.545773
     33 C12         4.3400   -3.1240   -3.6620 c3        1 MOL      0.003669
     34 C13         3.4300   -1.8800   -3.4990 c         1 MOL      0.643134
     35 O7          2.3370   -1.8930   -4.0980 o         1 MOL     -0.702135
     36 O8          3.7500   -0.9830   -2.7120 o         1 MOL     -0.702135
     37 H13         3.0070   -3.3020   -1.3850 hn        1 MOL      0.211048
     38 H14         5.2360   -4.7380   -2.8610 h1        1 MOL      0.112246
     39 H15         3.7960   -3.9240   -4.1640 hc        1 MOL     -0.006212
     40 H16         5.1860   -2.9030   -4.3100 hc        1 MOL     -0.006212
     41 N4          5.7780   -2.6290   -0.3900 n         1 MOL     -0.020625
     42 C14         6.8790   -2.0720    0.4580 c3        1 MOL     -0.232510
     43 C15         7.4670   -0.7680   -0.0750 c         1 MOL      0.574977
     44 O9          8.5640   -0.3330    0.3040 o         1 MOL     -0.589447
     45 H17         4.8960   -2.8650    0.0510 hn        1 MOL      0.113930
     46 H18         7.6610   -2.8280    0.5310 h1        1 MOL      0.110461
     47 H19         6.4240   -1.8180    1.4110 h1        1 MOL      0.110461
     48 N5          6.6910    0.0470   -0.9080 n         1 MOL     -0.263927
     49 C16         7.0760    1.3140   -1.4310 c3        1 MOL      0.034226
     50 C17         6.9690    2.5240   -0.5280 c         1 MOL      0.438779
     51 O10         7.6850    3.4970   -0.8020 o         1 MOL     -0.582837
     52 C18         6.2770    1.4410   -2.7250 c3        1 MOL     -0.413165
     53 C19         4.8310    1.8480   -2.6270 c         1 MOL      0.699213
     54 N6          4.2980    2.4820   -3.5970 n         1 MOL     -0.688768
     55 O11         4.1190    1.5610   -1.6930 o         1 MOL     -0.601773
     56 H20         5.7280   -0.2470   -0.9910 hn        1 MOL      0.219932
     57 H21         8.1260    1.2010   -1.7110 h1        1 MOL      0.102730
     58 H22         6.3490    0.5760   -3.3850 hc        1 MOL      0.117560
     59 H23         6.7360    2.3280   -3.1770 hc        1 MOL      0.117560
     60 H24         4.9190    2.8920   -4.2810 hn        1 MOL      0.321908
     61 H25         3.3340    2.7550   -3.4640 hn        1 MOL      0.321908
     62 N7          6.3090    2.3820    0.6070 n         1 MOL     -0.040111
     63 C20         6.1880    3.3430    1.6800 c3        1 MOL     -0.311388
     64 C21         4.8640    4.2090    1.8060 c         1 MOL      0.589157
     65 O12         4.7570    5.0110    2.7360 o         1 MOL     -0.578519
     66 H26         5.7930    1.5150    0.6930 hn        1 MOL      0.141319
     67 H27         7.0660    3.9950    1.6700 h1        1 MOL      0.125604
     68 H28         6.2870    2.7890    2.6100 h1        1 MOL      0.125604
     69 N8          3.9090    3.8900    0.9570 n         1 MOL     -0.279572
     70 C22         2.5820    4.4360    1.1070 c3        1 MOL     -0.023495
     71 C23         1.4820    3.3410    1.0330 c         1 MOL      0.550057
     72 O13         1.6410    2.3390    0.3170 o         1 MOL     -0.508814
     73 C24         2.1460    5.5800    0.0690 c3        1 MOL      0.290506
     74 C25         2.8850    6.8910    0.3110 c3        1 MOL     -0.432788
     75 O14         2.4190    5.1870   -1.2460 oh        1 MOL     -0.567264
     76 H29         3.9930    3.2730    0.1610 hn        1 MOL      0.233361
     77 H30         2.3900    4.9510    2.0570 h1        1 MOL      0.069620
     78 H31         1.0880    5.8260    0.1360 h1        1 MOL      0.018309
     79 H32         2.3280    5.9800   -1.7850 ho        1 MOL      0.390285
     80 H33         2.6790    7.1830    1.3430 hc        1 MOL      0.109353
     81 H34         3.9680    6.8180    0.2160 hc        1 MOL      0.109353
     82 H35         2.4650    7.5990   -0.3930 hc        1 MOL      0.109353
     83 N9          0.2970    3.5800    1.6430 n         1 MOL     -0.448202
     84 C26        -0.8210    2.6950    1.7350 c3        1 MOL     -0.030364
     85 C27        -1.8260    2.9300    0.5430 c         1 MOL      0.472882
     86 O15        -2.5610    3.9360    0.3880 o         1 MOL     -0.574989
     87 C28        -1.5450    2.7520    3.1450 c3        1 MOL      0.053112
     88 C29        -0.5810    2.5080    4.2790 c3        1 MOL      0.148798
     89 C30        -2.6220    1.7640    3.1320 c3        1 MOL      0.101656
     90 C31        -0.9080    2.7060    5.7570 c3        1 MOL     -0.319103
     91 H36         0.2230    4.4310    2.1850 hn        1 MOL      0.246957
     92 H37        -0.3940    1.7010    1.5930 h1        1 MOL      0.070557
     93 H38        -1.9240    3.7660    3.2400 hc        1 MOL      0.004394
     94 H39         0.3430    3.0820    4.1640 hc        1 MOL     -0.006271
     95 H40        -0.1960    1.4880    4.2470 hc        1 MOL     -0.006271
     96 H41        -3.2860    2.0670    3.9480 hc        1 MOL     -0.038152
     97 H42        -3.2410    1.7770    2.2340 hc        1 MOL     -0.038152
     98 H43        -2.2330    0.7500    3.2030 hc        1 MOL     -0.038152
     99 H44        -1.1170    3.7610    5.9560 hc        1 MOL      0.066284
    100 H45        -1.7720    2.1180    6.0630 hc        1 MOL      0.066284
    101 H46        -0.0760    2.2370    6.2770 hc        1 MOL      0.066284
    102 N10        -1.9590    1.9030   -0.3560 n         1 MOL     -0.106136
    103 C32        -2.9270    1.8970   -1.4650 c3        1 MOL     -0.014946
    104 C33        -4.3590    1.4740   -0.9990 c         1 MOL      0.631938
    105 O16        -4.5930    1.1930    0.1360 o         1 MOL     -0.476136
    106 C34        -2.4740    1.0450   -2.6490 c3        1 MOL     -0.268201
    107 C35        -1.0500    1.2080   -3.0840 c         1 MOL      0.758675
    108 O17        -0.7420    2.1720   -3.8170 o         1 MOL     -0.702514
    109 O18        -0.1730    0.3990   -2.6500 o         1 MOL     -0.702514
    110 H47        -1.4400    1.0500   -0.2110 hn        1 MOL      0.031258
    111 H48        -3.0460    2.9180   -1.8270 h1        1 MOL      0.074208
    112 H49        -3.1720    1.1180   -3.4950 hc        1 MOL      0.093032
    113 H50        -2.5610    0.0260   -2.2580 hc        1 MOL      0.093032
    114 N11        -5.4090    1.5190   -1.8710 n         1 MOL     -0.838803
    115 C36        -6.7420    1.2260   -1.3570 c3        1 MOL      0.690858
    116 C37        -6.7940   -0.2290   -0.8540 c         1 MOL      0.187861
    117 O19        -7.3240   -0.3920    0.2570 o         1 MOL     -0.495931
    118 C38        -7.8580    1.5840   -2.3220 c3        1 MOL     -0.307024
    119 C39        -9.2720    1.5000   -1.7380 ca        1 MOL      0.149878
    120 C40       -10.2160    0.9430   -2.6130 ca        1 MOL     -0.200723
    121 C41        -9.6640    1.9450   -0.4290 ca        1 MOL     -0.200723
    122 C42       -11.5530    0.7810   -2.2240 ca        1 MOL     -0.078031
    123 C43       -10.9750    1.7450   -0.0700 ca        1 MOL     -0.078031
    124 C44       -11.9230    1.2220   -0.9500 ca        1 MOL     -0.140845
    125 H51        -5.3290    1.9230   -2.7890 hn        1 MOL      0.349737
    126 H52        -6.8560    1.9020   -0.5090 h1        1 MOL     -0.013549
    127 H53        -7.7920    0.7990   -3.0870 hc        1 MOL      0.064934
    128 H54        -7.7220    2.5650   -2.7870 hc        1 MOL      0.064934
    129 H55        -9.9790    0.5400   -3.5880 ha        1 MOL      0.133402
    130 H56        -9.0430    2.4240    0.3170 ha        1 MOL      0.133402
    131 H57       -12.3140    0.5450   -2.9500 ha        1 MOL      0.099985
    132 H58       -11.3160    1.9760    0.9250 ha        1 MOL      0.099985
    133 H59       -12.9660    1.0770   -0.7050 ha        1 MOL      0.095586
    134 N12        -6.3500   -1.3190   -1.5310 n         1 MOL      0.021579
    135 C45        -6.4990   -2.6740   -0.9660 c3        1 MOL     -0.075027
    136 C46        -5.5790   -2.9400    0.3020 c         1 MOL      0.460278
    137 O20        -5.7940   -3.9060    1.0430 o         1 MOL     -0.543624
    138 C47        -6.2770   -3.5570   -2.1930 c3        1 MOL     -0.109861
    139 C48        -5.4210   -2.8060   -3.1520 c3        1 MOL     -0.038760
    140 C49        -5.8610   -1.3780   -2.9460 c3        1 MOL      0.142059
    141 H60        -7.4770   -2.8840   -0.5210 h1        1 MOL      0.083582
    142 H61        -5.8600   -4.4970   -1.8430 hc        1 MOL      0.048388
    143 H62        -7.2750   -3.6360   -2.6150 hc        1 MOL      0.048388
    144 H63        -4.3800   -2.8460   -2.8320 hc        1 MOL      0.040251
    145 H64        -5.6490   -3.1820   -4.1470 hc        1 MOL      0.040251
    146 H65        -5.0490   -0.7140   -3.2260 h1        1 MOL     -0.044283
    147 H66        -6.7330   -1.1210   -3.5440 h1        1 MOL     -0.044283
    148 N13        -4.6950   -2.0200    0.6540 n         1 MOL     -0.119559
    149 C50        -3.8060   -2.0160    1.7640 c3        1 MOL     -0.235277
    150 C51        -4.4990   -1.3220    2.9890 c         1 MOL      0.576634
    151 O21        -4.3480   -1.6150    4.1430 o         1 MOL     -0.535993
    152 C52        -2.3860   -1.4510    1.4770 c3        1 MOL     -0.006311
    153 C53        -1.4680   -2.2540    0.5480 c3        1 MOL      0.072027
    154 C54        -0.2600   -1.4470    0.0500 c         1 MOL      0.481030
    155 O22         0.5160   -2.0000   -0.7770 o         1 MOL     -0.664980
    156 O23        -0.0270   -0.2600    0.2800 o         1 MOL     -0.664980
    157 H67        -4.5990   -1.2280    0.0320 hn        1 MOL      0.073552
    158 H68        -3.6190   -3.0480    2.0530 h1        1 MOL      0.123207
    159 H69        -1.8320   -1.3230    2.4110 hc        1 MOL      0.062319
    160 H70        -2.5270   -0.4710    1.0290 hc        1 MOL      0.062319
    161 H71        -2.0280   -2.6020   -0.3240 hc        1 MOL      0.019306
    162 H72        -1.0950   -3.1950    0.9540 hc        1 MOL      0.019306
    163 N14        -5.4370   -0.3520    2.5680 n         1 MOL     -0.200933
    164 C55        -6.3290    0.1120    3.6000 c3        1 MOL     -0.219287
    165 H73        -7.2970    0.3540    3.1600 h1        1 MOL      0.080588
    166 H74        -6.4570   -0.6690    4.3490 h1        1 MOL      0.080588
    167 H75        -5.9110    1.0020    4.0690 h1        1 MOL      0.080588
    168 H76        -5.2470    0.0840    1.6740 hn        1 MOL      0.201939
    169 Ca1         1.9520    0.0750   -1.2850 Ca        1 MOL      1.720317
    170 O24         1.6450    2.7110   -2.3780 oh        1 MOL     -0.781257
    171 H77         0.8030    2.6440   -2.8210 ho        1 MOL      0.367141
    172 H78         1.6650    3.5880   -2.0140 ho        1 MOL      0.367141
@<TRIPOS>BOND
     1    1    2 1   
     2    1    4 1   
     3    1    5 1   
     4    1    6 1   
     5    2    3 2   
     6    2    7 1   
     7    7    8 1   
     8    7   15 1   
     9    8    9 1   
    10    8   11 1   
    11    8   16 1   
    12    9   10 2   
    13    9   19 1   
    14   11   12 1   
    15   11   17 1   
    16   11   18 1   
    17   12   13 1   
    18   12   14 1   
    19   19   20 1   
    20   19   24 1   
    21   20   21 1   
    22   20   23 1   
    23   20   25 1   
    24   21   22 2   
    25   21   29 1   
    26   23   26 1   
    27   23   27 1   
    28   23   28 1   
    29   29   30 1   
    30   29   37 1   
    31   30   31 1   
    32   30   33 1   
    33   30   38 1   
    34   31   32 2   
    35   31   41 1   
    36   33   34 1   
    37   33   39 1   
    38   33   40 1   
    39   34   35 1   
    40   34   36 1   
    41   41   42 1   
    42   41   45 1   
    43   42   43 1   
    44   42   46 1   
    45   42   47 1   
    46   43   44 2   
    47   43   48 1   
    48   48   49 1   
    49   48   56 1   
    50   49   50 1   
    51   49   52 1   
    52   49   57 1   
    53   50   51 2   
    54   50   62 1   
    55   52   53 1   
    56   52   58 1   
    57   52   59 1   
    58   53   54 1   
    59   53   55 2   
    60   54   60 1   
    61   54   61 1   
    62   62   63 1   
    63   62   66 1   
    64   63   64 1   
    65   63   67 1   
    66   63   68 1   
    67   64   65 2   
    68   64   69 1   
    69   69   70 1   
    70   69   76 1   
    71   70   71 1   
    72   70   73 1   
    73   70   77 1   
    74   71   72 2   
    75   71   83 1   
    76   73   74 1   
    77   73   75 1   
    78   73   78 1   
    79   74   80 1   
    80   74   81 1   
    81   74   82 1   
    82   75   79 1   
    83   83   84 1   
    84   83   91 1   
    85   84   85 1   
    86   84   87 1   
    87   84   92 1   
    88   85   86 2   
    89   85  102 1   
    90   87   88 1   
    91   87   89 1   
    92   87   93 1   
    93   88   90 1   
    94   88   94 1   
    95   88   95 1   
    96   89   96 1   
    97   89   97 1   
    98   89   98 1   
    99   90   99 1   
   100   90  100 1   
   101   90  101 1   
   102  102  103 1   
   103  102  110 1   
   104  103  104 1   
   105  103  106 1   
   106  103  111 1   
   107  104  105 2   
   108  104  114 1   
   109  106  107 1   
   110  106  112 1   
   111  106  113 1   
   112  107  108 1   
   113  107  109 1   
   114  114  115 1   
   115  114  125 1   
   116  115  116 1   
   117  115  118 1   
   118  115  126 1   
   119  116  117 2   
   120  116  134 1   
   121  118  119 1   
   122  118  127 1   
   123  118  128 1   
   124  119  120 ar  
   125  119  121 ar  
   126  120  122 ar  
   127  120  129 1   
   128  121  123 ar  
   129  121  130 1   
   130  122  124 ar  
   131  122  131 1   
   132  123  124 ar  
   133  123  132 1   
   134  124  133 1   
   135  134  135 1   
   136  134  140 1   
   137  135  136 1   
   138  135  138 1   
   139  135  141 1   
   140  136  137 2   
   141  136  148 1   
   142  138  139 1   
   143  138  142 1   
   144  138  143 1   
   145  139  140 1   
   146  139  144 1   
   147  139  145 1   
   148  140  146 1   
   149  140  147 1   
   150  148  149 1   
   151  148  157 1   
   152  149  150 1   
   153  149  152 1   
   154  149  158 1   
   155  150  151 2   
   156  150  163 1   
   157  152  153 1   
   158  152  159 1   
   159  152  160 1   
   160  153  154 1   
   161  153  161 1   
   162  153  162 1   
   163  154  155 1   
   164  154  156 1   
   165  163  164 1   
   166  163  168 1   
   167  164  165 1   
   168  164  166 1   
   169  164  167 1   
   170  170  171 1   
   171  170  172 1   
@<TRIPOS>SUBSTRUCTURE
     1 MOL         1 TEMP              0 ****  ****    0 ROOT
