@<TRIPOS>MOLECULE
MOL
  179   176     1     0     0
SMALL
resp


@<TRIPOS>ATOM
      1 C1          2.0980    3.7490    6.5220 c3        1 MOL     -0.376856
      2 C2          2.0510    3.0700    5.1510 c         1 MOL      0.775701
      3 O1          3.0300    2.5720    4.6380 o         1 MOL     -0.590242
      4 H1          1.9620    4.8240    6.3990 hc        1 MOL      0.087932
      5 H2          1.3010    3.3530    7.1520 hc        1 MOL      0.087932
      6 H3          3.0620    3.5570    6.9920 hc        1 MOL      0.087932
      7 N1          0.8560    3.1050    4.5770 n         1 MOL     -0.601590
      8 C3          0.6430    2.7700    3.1900 c3        1 MOL      0.064877
      9 C4          0.5620    3.9920    2.1720 c         1 MOL      0.628611
     10 O2          0.2950    5.0810    2.6280 o         1 MOL     -0.562232
     11 C5         -0.7250    2.0720    3.2110 c3        1 MOL      0.095333
     12 C6         -0.9950    1.2720    1.8960 c         1 MOL      0.434268
     13 O3         -0.3560    1.5190    0.8840 o         1 MOL     -0.666620
     14 O4         -1.9410    0.4150    1.8780 o         1 MOL     -0.666620
     15 H4          0.0970    3.5480    5.0800 hn        1 MOL      0.313682
     16 H5          1.3320    2.0270    2.8030 h1        1 MOL      0.071801
     17 H6         -1.4290    2.8980    3.3140 hc        1 MOL     -0.011637
     18 H7         -0.7820    1.3920    4.0610 hc        1 MOL     -0.011637
     19 N2          0.9980    3.8620    0.9570 n         1 MOL     -0.541820
     20 C7          1.1360    4.9530   -0.0580 c3        1 MOL      0.099638
     21 C8         -0.2430    5.3910   -0.6290 c         1 MOL      0.399171
     22 O5         -0.3200    6.5190   -1.1470 o         1 MOL     -0.560335
     23 C9          1.9280    4.4600   -1.2910 c3        1 MOL      0.102751
     24 C10         2.7380    5.6230   -1.9100 c3        1 MOL     -0.177375
     25 C11         3.4210    5.1360   -3.1830 c3        1 MOL     -0.039756
     26 C12         4.6690    5.9770   -3.4160 c3        1 MOL      0.097625
     27 N3          5.5850    5.4480   -4.4120 n4        1 MOL     -0.478874
     28 H8          1.3040    2.9520    0.6440 hn        1 MOL      0.276047
     29 H9          1.4850    5.8590    0.4390 h1        1 MOL      0.076169
     30 H10         1.2490    4.0090   -2.0080 hc        1 MOL      0.038118
     31 H11         2.5750    3.6740   -0.9100 hc        1 MOL      0.038118
     32 H12         3.4570    5.9120   -1.1350 hc        1 MOL      0.061947
     33 H13         2.1300    6.4800   -2.2220 hc        1 MOL      0.061947
     34 H14         2.7780    5.2750   -4.0460 hc        1 MOL      0.060251
     35 H15         3.7340    4.0920   -3.1320 hc        1 MOL      0.060251
     36 H16         5.3290    5.9580   -2.5450 hx        1 MOL      0.068658
     37 H17         4.4120    7.0150   -3.6410 hx        1 MOL      0.068658
     38 H18         5.0840    5.3100   -5.2820 hn        1 MOL      0.356591
     39 H19         6.2960    6.1280   -4.6190 hn        1 MOL      0.356591
     40 H20         6.0160    4.6370   -3.9990 hn        1 MOL      0.356591
     41 N4         -1.2740    4.5070   -0.4840 n         1 MOL     -0.154272
     42 C13        -2.6960    4.8340   -0.9050 c3        1 MOL      0.002587
     43 C14        -3.7410    4.1920    0.0100 c         1 MOL      0.379823
     44 O6         -3.3740    3.3940    0.8610 o         1 MOL     -0.389557
     45 C15        -2.9380    4.4860   -2.3230 c3        1 MOL     -0.106878
     46 C16        -2.5500    3.0700   -2.8050 c         1 MOL      0.715568
     47 O7         -2.5580    2.1000   -2.0020 o         1 MOL     -0.689235
     48 O8         -2.2220    2.9260   -3.9810 o         1 MOL     -0.689235
     49 H21        -1.0580    3.6030   -0.0860 hn        1 MOL      0.151297
     50 H22        -2.8690    5.9030   -0.7180 h1        1 MOL      0.083134
     51 H23        -2.5070    5.2950   -2.9200 hc        1 MOL      0.030010
     52 H24        -3.9460    4.7450   -2.6240 hc        1 MOL      0.030010
     53 N5         -5.0630    4.6010   -0.0480 n         1 MOL     -0.356301
     54 C17        -6.0810    4.1020    0.9070 c3        1 MOL     -0.195673
     55 C18        -6.7260    2.8070    0.4240 c         1 MOL      0.516063
     56 O9         -7.7800    2.3840    0.9300 o         1 MOL     -0.572303
     57 H25        -5.3520    5.3570   -0.6460 hn        1 MOL      0.275423
     58 H26        -6.7960    4.9340    0.9480 h1        1 MOL      0.133632
     59 H27        -5.6750    3.9570    1.8990 h1        1 MOL      0.133632
     60 N6         -6.1590    2.0900   -0.5670 n         1 MOL     -0.220287
     61 C19        -6.7330    0.9320   -1.2840 c3        1 MOL      0.004091
     62 C20        -7.2130   -0.2660   -0.4330 c         1 MOL      0.381177
     63 O10        -8.0080   -1.0620   -0.9190 o         1 MOL     -0.523676
     64 C21        -5.7460    0.4910   -2.3440 c3        1 MOL     -0.185491
     65 C22        -4.8610   -0.6670   -1.8180 c         1 MOL      0.469762
     66 N7         -5.0260   -1.8790   -2.2930 n         1 MOL     -0.704648
     67 O11        -4.0080   -0.4610   -0.9700 o         1 MOL     -0.619638
     68 H28        -5.2360    2.3830   -0.8510 hn        1 MOL      0.086732
     69 H29        -7.6080    1.3850   -1.7650 h1        1 MOL      0.092670
     70 H30        -5.2040    1.3020   -2.8420 hc        1 MOL      0.091252
     71 H31        -6.3760    0.0800   -3.1310 hc        1 MOL      0.091252
     72 H32        -5.8050   -2.0020   -2.9140 hn        1 MOL      0.381764
     73 H33        -4.3760   -2.6030   -2.0100 hn        1 MOL      0.381764
     74 N8         -6.6020   -0.5030    0.6820 n         1 MOL      0.033424
     75 C23        -7.0010   -1.3900    1.7640 c3        1 MOL     -0.268614
     76 C24        -5.9730   -2.3600    2.2910 c         1 MOL      0.554223
     77 O12        -6.3060   -3.3130    3.0900 o         1 MOL     -0.554069
     78 H34        -5.8900    0.1380    1.0190 hn        1 MOL      0.192766
     79 H35        -7.7930   -2.0540    1.4350 h1        1 MOL      0.121470
     80 H36        -7.3870   -0.8340    2.6130 h1        1 MOL      0.121470
     81 N9         -4.7230   -2.1520    1.8360 n         1 MOL     -0.394598
     82 C25        -3.6590   -3.1640    2.0540 c3        1 MOL      0.001853
     83 C26        -2.2590   -2.6540    1.7420 c         1 MOL      0.638678
     84 O13        -2.1080   -2.0530    0.6840 o         1 MOL     -0.553867
     85 C27        -3.9670   -4.4900    1.2840 c3        1 MOL     -0.235470
     86 C28        -4.3340   -4.4120   -0.2090 ca        1 MOL      0.107134
     87 C29        -3.3040   -4.4750   -1.2170 ca        1 MOL     -0.167795
     88 C30        -5.6440   -4.5820   -0.6040 ca        1 MOL     -0.167795
     89 C31        -3.6070   -4.8060   -2.5380 ca        1 MOL     -0.248609
     90 C32        -5.9670   -4.8760   -1.9080 ca        1 MOL     -0.248609
     91 C33        -4.9410   -5.1200   -2.8460 ca        1 MOL      0.275069
     92 O14        -5.2360   -5.3880   -4.1150 oh        1 MOL     -0.458853
     93 H37        -4.4710   -1.3690    1.2490 hn        1 MOL      0.287250
     94 H38        -3.7210   -3.2760    3.1420 h1        1 MOL      0.081202
     95 H39        -4.8680   -4.8260    1.7830 hc        1 MOL      0.100431
     96 H40        -3.1840   -5.1970    1.5610 hc        1 MOL      0.100431
     97 H41        -2.2720   -4.4510   -0.8770 ha        1 MOL      0.165205
     98 H42        -6.3960   -4.6260    0.1650 ha        1 MOL      0.165205
     99 H43        -2.8350   -5.0720   -3.2340 ha        1 MOL      0.150047
    100 H44        -6.9810   -5.0340   -2.2310 ha        1 MOL      0.150047
    101 H45        -4.4350   -5.5650   -4.6170 ho        1 MOL      0.348632
    102 N10        -1.1590   -2.9210    2.5260 n         1 MOL     -0.611524
    103 C34         0.2180   -2.4840    2.2520 c3        1 MOL      0.041773
    104 C35         1.0510   -3.6770    1.6090 c         1 MOL      0.662575
    105 O15         0.8230   -4.9180    1.8580 o         1 MOL     -0.568675
    106 C36         0.9150   -1.8710    3.5200 c3        1 MOL      0.112408
    107 C37         2.3210   -1.2290    3.1880 c3        1 MOL     -0.130930
    108 C38         1.0530   -2.8610    4.6550 c3        1 MOL     -0.321872
    109 C39         3.1080   -0.5490    4.4000 c3        1 MOL     -0.100660
    110 H46        -1.3280   -3.6360    3.2270 hn        1 MOL      0.327950
    111 H47         0.2040   -1.6870    1.5080 h1        1 MOL      0.022016
    112 H48         0.2920   -1.0880    3.9450 hc        1 MOL      0.095854
    113 H49         2.1950   -0.4550    2.4250 hc        1 MOL      0.003290
    114 H50         3.0240   -2.0410    2.9690 hc        1 MOL      0.003290
    115 H51         1.6970   -3.6970    4.3750 hc        1 MOL      0.075960
    116 H52         1.5620   -2.3870    5.4870 hc        1 MOL      0.075960
    117 H53         0.0590   -3.2220    4.9240 hc        1 MOL      0.075960
    118 H54         3.7790   -1.1990    4.9630 hc        1 MOL      0.033963
    119 H55         3.8510    0.2050    4.1260 hc        1 MOL      0.033963
    120 H56         2.4400   -0.0370    5.1060 hc        1 MOL      0.033963
    121 N11         2.0470   -3.1870    0.8530 n         1 MOL     -0.817882
    122 C40         2.8940   -4.0520   -0.0320 c3        1 MOL      0.386072
    123 C41         4.3800   -3.6360    0.0940 c         1 MOL      0.174396
    124 O16         4.7290   -2.5570    0.5220 o         1 MOL     -0.137656
    125 C42         2.4670   -3.8600   -1.4620 c3        1 MOL      0.206096
    126 O17         1.2440   -4.5580   -1.5750 oh        1 MOL     -0.635152
    127 H57         1.9590   -2.1950    0.6970 hn        1 MOL      0.664636
    128 H58         2.8670   -5.1340    0.1090 h1        1 MOL      0.034032
    129 H59         3.1880   -4.3980   -2.0860 h1        1 MOL     -0.038062
    130 H60         2.3930   -2.7860   -1.6390 h1        1 MOL     -0.038062
    131 H61         1.3560   -5.0270   -2.4010 ho        1 MOL      0.406529
    132 N12         5.3400   -4.5030   -0.3440 n         1 MOL     -0.455636
    133 C43         6.7940   -4.4010   -0.1380 c3        1 MOL      0.224565
    134 C44         7.4050   -3.0600   -0.6360 c         1 MOL      0.388326
    135 O18         8.0820   -2.4300    0.1660 o         1 MOL     -0.480665
    136 C45         7.4780   -5.5530   -0.8740 c3        1 MOL     -0.466260
    137 H62         4.9680   -5.3690   -0.6930 hn        1 MOL      0.282439
    138 H63         6.9750   -4.3620    0.9320 h1        1 MOL      0.062860
    139 H64         8.5060   -5.5580   -0.5130 hc        1 MOL      0.135273
    140 H65         7.0040   -6.4840   -0.5630 hc        1 MOL      0.135273
    141 H66         7.5140   -5.4610   -1.9610 hc        1 MOL      0.135273
    142 N13         7.0720   -2.6640   -1.8690 n         1 MOL     -0.214450
    143 C46         7.6350   -1.4050   -2.4560 c3        1 MOL     -0.101026
    144 C47         7.1100   -0.1440   -1.7170 c         1 MOL      0.430230
    145 O19         7.7540    0.8970   -1.5500 o         1 MOL     -0.511280
    146 C48         7.2810   -1.4960   -3.9460 c3        1 MOL     -0.174684
    147 H67         6.5180   -3.2650   -2.4590 hn        1 MOL      0.198829
    148 H68         8.7320   -1.4790   -2.4500 h1        1 MOL      0.131377
    149 H69         6.2410   -1.4890   -4.2660 hc        1 MOL      0.063602
    150 H70         7.7010   -0.6490   -4.4960 hc        1 MOL      0.063602
    151 H71         7.7330   -2.3750   -4.4010 hc        1 MOL      0.063602
    152 N14         5.8860   -0.2320   -1.2240 n         1 MOL     -0.129024
    153 C49         5.1780    0.9130   -0.5340 c3        1 MOL     -0.284909
    154 C50         5.7150    0.9450    0.9340 c         1 MOL      0.429194
    155 O20         6.0210    2.0430    1.4030 o         1 MOL     -0.538299
    156 C51         3.7250    0.5790   -0.4920 c3        1 MOL      0.075903
    157 C52         3.0150    0.2360   -1.7840 c3        1 MOL     -0.173446
    158 C53         1.5400    0.1780   -1.5610 c         1 MOL      0.713982
    159 O21         1.0220   -0.6530   -0.7860 o         1 MOL     -0.736589
    160 O22         0.7970    1.0300   -2.0630 o         1 MOL     -0.736589
    161 H72         5.4390   -1.1350   -1.1830 hn        1 MOL      0.125631
    162 H73         5.3030    1.8710   -1.0560 h1        1 MOL      0.161348
    163 H74         3.2220    1.3550    0.0710 hc        1 MOL      0.018417
    164 H75         3.6500   -0.2740    0.1800 hc        1 MOL      0.018417
    165 H76         3.4210   -0.7270   -2.0820 hc        1 MOL     -0.002862
    166 H77         3.3070    0.9800   -2.5180 hc        1 MOL     -0.002862
    167 N15         5.8810   -0.1920    1.6090 n         1 MOL      0.100260
    168 C54         6.6860   -0.2660    2.8660 c3        1 MOL     -0.235313
    169 H78         6.8970    0.7420    3.2230 h1        1 MOL      0.096979
    170 H79         6.1250   -0.8100    3.6260 h1        1 MOL      0.096979
    171 H80         7.6240   -0.7840    2.6670 h1        1 MOL      0.096979
    172 H81         5.5370   -1.0570    1.2200 hn        1 MOL     -0.050233
    173 Ca1        -1.4540   -0.0300   -0.9490 Ca        1 MOL      1.790091
    174 O23        -1.9140   -0.1190   -3.6190 oh        1 MOL     -0.837487
    175 H82        -1.7120   -0.3850   -4.5150 ho        1 MOL      0.399288
    176 H83        -2.3070    0.7430   -3.7060 ho        1 MOL      0.399288
    177 O24        -0.6960   -2.4340   -2.0970 oh        1 MOL     -0.837487
    178 H84        -0.4120   -2.5730   -3.0010 ho        1 MOL      0.399288
    179 H85        -0.0160   -2.8390   -1.5630 ho        1 MOL      0.399288
@<TRIPOS>BOND
     1    1    2 1   
     2    1    4 1   
     3    1    5 1   
     4    1    6 1   
     5    2    3 2   
     6    2    7 1   
     7    7    8 1   
     8    7   15 1   
     9    8    9 1   
    10    8   11 1   
    11    8   16 1   
    12    9   10 2   
    13    9   19 1   
    14   11   12 1   
    15   11   17 1   
    16   11   18 1   
    17   12   13 1   
    18   12   14 1   
    19   19   20 1   
    20   19   28 1   
    21   20   21 1   
    22   20   23 1   
    23   20   29 1   
    24   21   22 2   
    25   21   41 1   
    26   23   24 1   
    27   23   30 1   
    28   23   31 1   
    29   24   25 1   
    30   24   32 1   
    31   24   33 1   
    32   25   26 1   
    33   25   34 1   
    34   25   35 1   
    35   26   27 1   
    36   26   36 1   
    37   26   37 1   
    38   27   38 1   
    39   27   39 1   
    40   27   40 1   
    41   41   42 1   
    42   41   49 1   
    43   42   43 1   
    44   42   45 1   
    45   42   50 1   
    46   43   44 2   
    47   43   53 1   
    48   45   46 1   
    49   45   51 1   
    50   45   52 1   
    51   46   47 1   
    52   46   48 1   
    53   53   54 1   
    54   53   57 1   
    55   54   55 1   
    56   54   58 1   
    57   54   59 1   
    58   55   56 2   
    59   55   60 1   
    60   60   61 1   
    61   60   68 1   
    62   61   62 1   
    63   61   64 1   
    64   61   69 1   
    65   62   63 2   
    66   62   74 1   
    67   64   65 1   
    68   64   70 1   
    69   64   71 1   
    70   65   66 1   
    71   65   67 2   
    72   66   72 1   
    73   66   73 1   
    74   74   75 1   
    75   74   78 1   
    76   75   76 1   
    77   75   79 1   
    78   75   80 1   
    79   76   77 2   
    80   76   81 1   
    81   81   82 1   
    82   81   93 1   
    83   82   83 1   
    84   82   85 1   
    85   82   94 1   
    86   83   84 2   
    87   83  102 1   
    88   85   86 1   
    89   85   95 1   
    90   85   96 1   
    91   86   87 ar  
    92   86   88 ar  
    93   87   89 ar  
    94   87   97 1   
    95   88   90 ar  
    96   88   98 1   
    97   89   91 ar  
    98   89   99 1   
    99   90   91 ar  
   100   90  100 1   
   101   91   92 1   
   102   92  101 1   
   103  102  103 1   
   104  102  110 1   
   105  103  104 1   
   106  103  106 1   
   107  103  111 1   
   108  104  105 2   
   109  104  121 1   
   110  106  107 1   
   111  106  108 1   
   112  106  112 1   
   113  107  109 1   
   114  107  113 1   
   115  107  114 1   
   116  108  115 1   
   117  108  116 1   
   118  108  117 1   
   119  109  118 1   
   120  109  119 1   
   121  109  120 1   
   122  121  122 1   
   123  121  127 1   
   124  122  123 1   
   125  122  125 1   
   126  122  128 1   
   127  123  124 2   
   128  123  132 1   
   129  125  126 1   
   130  125  129 1   
   131  125  130 1   
   132  126  131 1   
   133  132  133 1   
   134  132  137 1   
   135  133  134 1   
   136  133  136 1   
   137  133  138 1   
   138  134  135 2   
   139  134  142 1   
   140  136  139 1   
   141  136  140 1   
   142  136  141 1   
   143  142  143 1   
   144  142  147 1   
   145  143  144 1   
   146  143  146 1   
   147  143  148 1   
   148  144  145 2   
   149  144  152 1   
   150  146  149 1   
   151  146  150 1   
   152  146  151 1   
   153  152  153 1   
   154  152  161 1   
   155  153  154 1   
   156  153  156 1   
   157  153  162 1   
   158  154  155 2   
   159  154  167 1   
   160  156  157 1   
   161  156  163 1   
   162  156  164 1   
   163  157  158 1   
   164  157  165 1   
   165  157  166 1   
   166  158  159 1   
   167  158  160 1   
   168  167  168 1   
   169  167  172 1   
   170  168  169 1   
   171  168  170 1   
   172  168  171 1   
   173  174  175 1   
   174  174  176 1   
   175  177  178 1   
   176  177  179 1   
@<TRIPOS>SUBSTRUCTURE
     1 MOL         1 TEMP              0 ****  ****    0 ROOT
