@<TRIPOS>MOLECULE
MOL
  175   173     1     0     0
SMALL
resp


@<TRIPOS>ATOM
      1 C1         -0.8690   -2.9400    5.8900 c3        1 MOL     -0.319244
      2 C2         -0.2070   -3.2300    4.5130 c         1 MOL      0.686756
      3 O1         -0.9160   -3.3780    3.4990 o         1 MOL     -0.550258
      4 H1         -0.7740   -3.8180    6.5300 hc        1 MOL      0.079973
      5 H2         -0.3720   -2.0930    6.3610 hc        1 MOL      0.079973
      6 H3         -1.9240   -2.7100    5.7450 hc        1 MOL      0.079973
      7 N1          1.0890   -3.1560    4.3810 n         1 MOL     -0.626284
      8 C3          1.7890   -3.0260    3.0940 c3        1 MOL      0.265503
      9 C4          1.8900   -4.3530    2.3080 c         1 MOL      0.522797
     10 O2          1.9210   -5.3690    2.9520 o         1 MOL     -0.568517
     11 C5          3.1850   -2.4450    3.3450 c3        1 MOL     -0.230560
     12 C6          3.9830   -2.1740    2.0460 c         1 MOL      0.692867
     13 O3          3.3950   -1.6010    1.0730 o         1 MOL     -0.667392
     14 O4          5.1600   -2.5660    1.9670 o         1 MOL     -0.667392
     15 H4          1.6110   -3.0100    5.2390 hn        1 MOL      0.307153
     16 H5          1.1730   -2.3480    2.5110 h1        1 MOL     -0.001972
     17 H6          3.7080   -3.2590    3.8510 hc        1 MOL      0.033797
     18 H7          3.2090   -1.6070    4.0380 hc        1 MOL      0.033797
     19 N2          1.8960   -4.2800    0.9660 n         1 MOL     -0.440804
     20 C7          1.9040   -5.3970    0.0590 c3        1 MOL      0.227104
     21 C8          3.0410   -5.1950   -1.0460 c         1 MOL      0.463515
     22 O5          3.2920   -6.1040   -1.7760 o         1 MOL     -0.565768
     23 C9          0.5440   -5.6380   -0.6410 c3        1 MOL     -0.172997
     24 H8          1.6990   -3.3440    0.6360 hn        1 MOL      0.434829
     25 H9          2.1550   -6.3450    0.5180 h1        1 MOL      0.016641
     26 H10         0.4510   -6.6140   -1.1120 hc        1 MOL      0.042253
     27 H11        -0.2720   -5.5990    0.0810 hc        1 MOL      0.042253
     28 H12         0.3250   -4.7770   -1.2760 hc        1 MOL      0.042253
     29 N3          3.7090   -4.0370   -1.1210 n         1 MOL     -0.235366
     30 C10         4.6390   -3.8350   -2.2460 c3        1 MOL      0.033158
     31 C11         5.8330   -2.9070   -2.0090 c         1 MOL      0.441448
     32 O6          6.6040   -2.5040   -2.9190 o         1 MOL     -0.558824
     33 C12         3.8740   -3.3140   -3.4730 c3        1 MOL     -0.158210
     34 C13         3.0700   -2.0230   -3.2510 c         1 MOL      0.841660
     35 O7          2.2880   -1.6810   -4.1440 o         1 MOL     -0.730240
     36 O8          3.2950   -1.2740   -2.3030 o         1 MOL     -0.730240
     37 H13         3.5700   -3.3270   -0.4210 hn        1 MOL     -0.055430
     38 H14         5.1560   -4.7520   -2.5150 h1        1 MOL      0.079598
     39 H15         3.1290   -4.0800   -3.6920 hc        1 MOL      0.021875
     40 H16         4.5740   -3.2000   -4.2970 hc        1 MOL      0.021875
     41 N4          6.1240   -2.5640   -0.7890 n         1 MOL     -0.268193
     42 C14         7.2490   -1.8030   -0.3290 c3        1 MOL     -0.343602
     43 C15         7.2990   -0.3470   -0.9170 c         1 MOL      0.618192
     44 O9          8.2330    0.3630   -0.6050 o         1 MOL     -0.626333
     45 H17         5.5320   -2.9560   -0.0710 hn        1 MOL      0.285492
     46 H18         8.1580   -2.3860   -0.5010 h1        1 MOL      0.159354
     47 H19         7.0360   -1.6530    0.7280 h1        1 MOL      0.159354
     48 N5          6.2980    0.1600   -1.6510 n         1 MOL     -0.291929
     49 C16         6.3460    1.5020   -2.2550 c3        1 MOL      0.276565
     50 C17         6.5450    2.6900   -1.2470 c         1 MOL      0.363609
     51 O10         7.0050    3.7510   -1.6600 o         1 MOL     -0.551147
     52 C18         5.1970    1.7780   -3.3310 c3        1 MOL     -0.273934
     53 C19         3.7560    1.8360   -2.8450 c         1 MOL      0.551016
     54 N6          2.8280    1.6400   -3.7790 n         1 MOL     -0.616981
     55 O11         3.4790    1.9950   -1.6370 o         1 MOL     -0.435160
     56 H20         5.5800   -0.4940   -1.9380 hn        1 MOL      0.141910
     57 H21         7.2660    1.4360   -2.8360 h1        1 MOL      0.014808
     58 H22         5.3310    1.1080   -4.1810 hc        1 MOL      0.076015
     59 H23         5.4700    2.7840   -3.6390 hc        1 MOL      0.076015
     60 H24         3.0950    1.5550   -4.7490 hn        1 MOL      0.337446
     61 H25         1.8350    1.6860   -3.6140 hn        1 MOL      0.337446
     62 N7          6.1370    2.5680    0.0530 n         1 MOL      0.000463
     63 C20         6.2960    3.5170    1.1560 c3        1 MOL     -0.145364
     64 C21         5.0080    4.2670    1.6060 c         1 MOL      0.522717
     65 O12         5.1310    5.0930    2.4700 o         1 MOL     -0.572550
     66 H26         5.5660    1.7500    0.1950 hn        1 MOL      0.033634
     67 H27         7.2070    4.1010    1.0240 h1        1 MOL      0.080074
     68 H28         6.5760    2.9350    2.0420 h1        1 MOL      0.080074
     69 N8          3.8510    4.0470    0.9320 n         1 MOL     -0.176727
     70 C22         2.5720    4.6940    1.0460 c3        1 MOL     -0.071853
     71 C23         1.4930    3.6510    1.1940 c         1 MOL      0.576849
     72 O13         1.5600    2.5810    0.5650 o         1 MOL     -0.549056
     73 C24         2.1830    5.5120   -0.1170 c3        1 MOL      0.547127
     74 C25         3.0140    6.7890   -0.2560 c3        1 MOL     -0.475190
     75 O14         2.3800    4.6750   -1.2790 oh        1 MOL     -0.632404
     76 H29         3.9300    3.2460    0.3210 hn        1 MOL      0.032562
     77 H30         2.4050    5.2240    1.9770 h1        1 MOL      0.019234
     78 H31         1.1210    5.7350    0.0460 h1        1 MOL     -0.068184
     79 H32         2.0460    3.7860   -1.1470 ho        1 MOL      0.353326
     80 H33         4.0870    6.6270   -0.1370 hc        1 MOL      0.116369
     81 H34         2.7630    7.2210   -1.2130 hc        1 MOL      0.116369
     82 H35         2.7820    7.5430    0.5040 hc        1 MOL      0.116369
     83 N9          0.4300    4.0080    1.8600 n         1 MOL     -0.567505
     84 C26        -0.6960    3.1190    1.8660 c3        1 MOL      0.050060
     85 C27        -1.3210    3.1690    0.4000 c         1 MOL      0.440844
     86 O15        -1.3940    4.2930   -0.1310 o         1 MOL     -0.536087
     87 C28        -1.7600    3.5590    2.8960 c3        1 MOL      0.262342
     88 C29        -1.0450    3.7330    4.2630 c3        1 MOL      0.057829
     89 C30        -2.8750    2.4660    2.9670 c3        1 MOL     -0.377043
     90 C31        -2.0170    3.9840    5.3570 c3        1 MOL     -0.216015
     91 H36         0.4570    4.9400    2.2450 hn        1 MOL      0.332438
     92 H37        -0.4540    2.0750    2.1010 h1        1 MOL     -0.020349
     93 H38        -2.1280    4.5090    2.5010 hc        1 MOL     -0.038772
     94 H39        -0.3660    4.5790    4.1340 hc        1 MOL     -0.011713
     95 H40        -0.3960    2.8730    4.4680 hc        1 MOL     -0.011713
     96 H41        -3.7270    2.8010    3.5670 hc        1 MOL      0.065302
     97 H42        -3.4020    2.3540    2.0160 hc        1 MOL      0.065302
     98 H43        -2.4330    1.5660    3.4130 hc        1 MOL      0.065302
     99 H44        -2.6420    3.1100    5.5350 hc        1 MOL      0.047129
    100 H45        -1.5070    4.1800    6.2970 hc        1 MOL      0.047129
    101 H46        -2.6850    4.7860    5.0450 hc        1 MOL      0.047129
    102 N10        -1.7800    2.0240   -0.1140 n         1 MOL     -0.319867
    103 C32        -2.6430    1.8810   -1.3220 c3        1 MOL      0.031382
    104 C33        -4.1020    1.4700   -1.0010 c         1 MOL      0.437202
    105 O16        -4.3320    1.0260    0.0710 o         1 MOL     -0.348064
    106 C34        -1.9210    0.9870   -2.3940 c3        1 MOL     -0.205109
    107 C35        -0.4190    1.2790   -2.6480 c         1 MOL      0.789145
    108 O17         0.4010    0.7440   -1.9190 o         1 MOL     -0.709892
    109 O18        -0.0650    1.9500   -3.6370 o         1 MOL     -0.709892
    110 H47        -1.5710    1.1900    0.4170 hn        1 MOL      0.500717
    111 H48        -2.6470    2.8280   -1.8510 h1        1 MOL      0.055104
    112 H49        -2.4670    1.0660   -3.3350 hc        1 MOL      0.031910
    113 H50        -1.9930   -0.0840   -2.1750 hc        1 MOL      0.031910
    114 N11        -5.0470    1.6350   -1.9100 n         1 MOL     -0.597966
    115 C36        -6.4730    1.2880   -1.5470 c3        1 MOL      0.332874
    116 C37        -6.6840   -0.1830   -1.1000 c         1 MOL      0.355474
    117 O19        -7.2510   -0.3220   -0.0040 o         1 MOL     -0.487885
    118 C38        -7.3580    1.7610   -2.7040 c3        1 MOL     -0.134289
    119 C39        -8.8600    1.6180   -2.4110 ca        1 MOL      0.033232
    120 C40        -9.5000    2.4810   -1.5030 ca        1 MOL     -0.162330
    121 C41        -9.5300    0.4960   -2.8590 ca        1 MOL     -0.162330
    122 C42       -10.8050    2.1920   -1.0720 ca        1 MOL     -0.108324
    123 C43       -10.8620    0.2140   -2.4190 ca        1 MOL     -0.108324
    124 C44       -11.4750    1.0340   -1.4780 ca        1 MOL     -0.084660
    125 H51        -4.9100    1.8750   -2.8780 hn        1 MOL      0.328757
    126 H52        -6.6830    1.9720   -0.7240 h1        1 MOL      0.042589
    127 H53        -7.1270    1.1330   -3.5640 hc        1 MOL      0.045052
    128 H54        -7.1020    2.7970   -2.9230 hc        1 MOL      0.045052
    129 H55        -9.0400    3.3840   -1.1310 ha        1 MOL      0.121785
    130 H56        -9.0680   -0.2150   -3.5370 ha        1 MOL      0.121785
    131 H57       -11.2200    2.9100   -0.3750 ha        1 MOL      0.105741
    132 H58       -11.4450   -0.5980   -2.8210 ha        1 MOL      0.105741
    133 H59       -12.4620    0.8570   -1.0780 ha        1 MOL      0.097595
    134 N12        -6.1620   -1.2470   -1.7380 n         1 MOL     -0.106396
    135 C45        -6.2220   -2.5890   -1.1740 c3        1 MOL     -0.010036
    136 C46        -5.4750   -2.7700    0.1020 c         1 MOL      0.417222
    137 O20        -5.8450   -3.6430    0.8410 o         1 MOL     -0.518201
    138 C47        -5.7500   -3.5950   -2.2090 c3        1 MOL     -0.119334
    139 C48        -4.8490   -2.6670   -3.0510 c3        1 MOL     -0.018888
    140 C49        -5.5870   -1.3800   -3.0850 c3        1 MOL     -0.011142
    141 H60        -7.2450   -2.8600   -0.9320 h1        1 MOL      0.066421
    142 H61        -5.2240   -4.4230   -1.7490 hc        1 MOL      0.068994
    143 H62        -6.6100   -3.9690   -2.7760 hc        1 MOL      0.068994
    144 H63        -3.9210   -2.5120   -2.4990 hc        1 MOL      0.034050
    145 H64        -4.7420   -3.0640   -4.0600 hc        1 MOL      0.034050
    146 H65        -4.9690   -0.4920   -3.2510 h1        1 MOL      0.024197
    147 H66        -6.3350   -1.3620   -3.8720 h1        1 MOL      0.024197
    148 N13        -4.4540   -1.9610    0.3810 n         1 MOL     -0.213777
    149 C50        -3.7670   -1.9000    1.7180 c3        1 MOL     -0.006073
    150 C51        -4.6530   -1.1840    2.7560 c         1 MOL      0.368886
    151 O21        -4.7860   -1.6700    3.9010 o         1 MOL     -0.556429
    152 C52        -2.3780   -1.2400    1.5570 c3        1 MOL     -0.022232
    153 C53        -1.5110   -1.8920    0.5310 c3        1 MOL     -0.435304
    154 C54        -0.1040   -1.4090    0.3410 c         1 MOL      0.509474
    155 O22         0.6820   -2.0150   -0.4220 o         1 MOL     -0.645051
    156 O23         0.2350   -0.4170    0.9850 o         1 MOL     -0.645051
    157 H67        -4.2010   -1.2930   -0.3320 hn        1 MOL      0.226468
    158 H68        -3.5380   -2.8480    2.1960 h1        1 MOL      0.105619
    159 H69        -1.8930   -1.4810    2.5050 hc        1 MOL      0.037896
    160 H70        -2.4610   -0.1740    1.3870 hc        1 MOL      0.037896
    161 H71        -1.9900   -1.7920   -0.4450 hc        1 MOL      0.135641
    162 H72        -1.3180   -2.9200    0.8520 hc        1 MOL      0.135641
    163 N14        -5.4330   -0.2200    2.3360 n         1 MOL      0.099386
    164 C55        -6.4230    0.4090    3.2350 c3        1 MOL     -0.233736
    165 H73        -6.5410   -0.2020    4.1300 h1        1 MOL      0.077352
    166 H74        -6.0780    1.4030    3.5180 h1        1 MOL      0.077352
    167 H75        -7.3820    0.4890    2.7220 h1        1 MOL      0.077352
    168 H76        -5.5770   -0.0080    1.3550 hn        1 MOL     -0.000616
    169 Ca1         2.3260    0.0840   -0.4020 Ca        1 MOL      1.614504
    170 O24         1.9130    0.4750    2.8160 oh        1 MOL     -0.810123
    171 H77         1.2640    0.0510    2.2640 ho        1 MOL      0.409965
    172 H78         1.5760    0.3680    3.7080 ho        1 MOL      0.409965
    173 O25         4.1650    1.1050    1.5680 oh        1 MOL     -0.810123
    174 H79         4.8860    1.1480    2.2000 ho        1 MOL      0.409965
    175 H80         3.3750    0.9930    2.1040 ho        1 MOL      0.409965
@<TRIPOS>BOND
     1    1    2 1   
     2    1    4 1   
     3    1    5 1   
     4    1    6 1   
     5    2    3 2   
     6    2    7 1   
     7    7    8 1   
     8    7   15 1   
     9    8    9 1   
    10    8   11 1   
    11    8   16 1   
    12    9   10 2   
    13    9   19 1   
    14   11   12 1   
    15   11   17 1   
    16   11   18 1   
    17   12   13 1   
    18   12   14 1   
    19   19   20 1   
    20   19   24 1   
    21   20   21 1   
    22   20   23 1   
    23   20   25 1   
    24   21   22 2   
    25   21   29 1   
    26   23   26 1   
    27   23   27 1   
    28   23   28 1   
    29   29   30 1   
    30   29   37 1   
    31   30   31 1   
    32   30   33 1   
    33   30   38 1   
    34   31   32 2   
    35   31   41 1   
    36   33   34 1   
    37   33   39 1   
    38   33   40 1   
    39   34   35 1   
    40   34   36 1   
    41   41   42 1   
    42   41   45 1   
    43   42   43 1   
    44   42   46 1   
    45   42   47 1   
    46   43   44 2   
    47   43   48 1   
    48   48   49 1   
    49   48   56 1   
    50   49   50 1   
    51   49   52 1   
    52   49   57 1   
    53   50   51 2   
    54   50   62 1   
    55   52   53 1   
    56   52   58 1   
    57   52   59 1   
    58   53   54 1   
    59   53   55 2   
    60   54   60 1   
    61   54   61 1   
    62   62   63 1   
    63   62   66 1   
    64   63   64 1   
    65   63   67 1   
    66   63   68 1   
    67   64   65 2   
    68   64   69 1   
    69   69   70 1   
    70   69   76 1   
    71   70   71 1   
    72   70   73 1   
    73   70   77 1   
    74   71   72 2   
    75   71   83 1   
    76   73   74 1   
    77   73   75 1   
    78   73   78 1   
    79   74   80 1   
    80   74   81 1   
    81   74   82 1   
    82   75   79 1   
    83   83   84 1   
    84   83   91 1   
    85   84   85 1   
    86   84   87 1   
    87   84   92 1   
    88   85   86 2   
    89   85  102 1   
    90   87   88 1   
    91   87   89 1   
    92   87   93 1   
    93   88   90 1   
    94   88   94 1   
    95   88   95 1   
    96   89   96 1   
    97   89   97 1   
    98   89   98 1   
    99   90   99 1   
   100   90  100 1   
   101   90  101 1   
   102  102  103 1   
   103  102  110 1   
   104  103  104 1   
   105  103  106 1   
   106  103  111 1   
   107  104  105 2   
   108  104  114 1   
   109  106  107 1   
   110  106  112 1   
   111  106  113 1   
   112  107  108 1   
   113  107  109 1   
   114  114  115 1   
   115  114  125 1   
   116  115  116 1   
   117  115  118 1   
   118  115  126 1   
   119  116  117 2   
   120  116  134 1   
   121  118  119 1   
   122  118  127 1   
   123  118  128 1   
   124  119  120 ar  
   125  119  121 ar  
   126  120  122 ar  
   127  120  129 1   
   128  121  123 ar  
   129  121  130 1   
   130  122  124 ar  
   131  122  131 1   
   132  123  124 ar  
   133  123  132 1   
   134  124  133 1   
   135  134  135 1   
   136  134  140 1   
   137  135  136 1   
   138  135  138 1   
   139  135  141 1   
   140  136  137 2   
   141  136  148 1   
   142  138  139 1   
   143  138  142 1   
   144  138  143 1   
   145  139  140 1   
   146  139  144 1   
   147  139  145 1   
   148  140  146 1   
   149  140  147 1   
   150  148  149 1   
   151  148  157 1   
   152  149  150 1   
   153  149  152 1   
   154  149  158 1   
   155  150  151 2   
   156  150  163 1   
   157  152  153 1   
   158  152  159 1   
   159  152  160 1   
   160  153  154 1   
   161  153  161 1   
   162  153  162 1   
   163  154  155 1   
   164  154  156 1   
   165  163  164 1   
   166  163  168 1   
   167  164  165 1   
   168  164  166 1   
   169  164  167 1   
   170  170  171 1   
   171  170  172 1   
   172  173  174 1   
   173  173  175 1   
@<TRIPOS>SUBSTRUCTURE
     1 MOL         1 TEMP              0 ****  ****    0 ROOT
