@<TRIPOS>MOLECULE
MOL
  183   181     1     0     0
SMALL
resp


@<TRIPOS>ATOM
      1 C1         -0.6590    1.3960    6.2870 c3        1 MOL     -0.273587
      2 C2         -0.9090    1.5190    4.7960 c         1 MOL      0.842652
      3 O1         -0.1520    2.1140    4.1100 o         1 MOL     -0.614845
      4 H1          0.2350    0.7960    6.4570 hc        1 MOL      0.049998
      5 H2         -0.5170    2.3880    6.7150 hc        1 MOL      0.049998
      6 H3         -1.5150    0.9140    6.7600 hc        1 MOL      0.049998
      7 N1         -2.0110    0.9170    4.3530 n         1 MOL     -0.714964
      8 C3         -2.5410    1.1340    3.0320 c3        1 MOL      0.284917
      9 C4         -3.1050    2.5410    2.8420 c         1 MOL      0.532427
     10 O2         -3.9230    2.8620    3.6680 o         1 MOL     -0.596225
     11 C5         -3.5780   -0.0270    2.7380 c3        1 MOL     -0.234319
     12 C6         -4.4200    0.0040    1.4340 c         1 MOL      0.593615
     13 O3         -5.6290   -0.3540    1.5270 o         1 MOL     -0.559943
     14 O4         -3.8840    0.5810    0.4770 o         1 MOL     -0.559943
     15 H4         -2.5200    0.3510    5.0200 hn        1 MOL      0.337618
     16 H5         -1.7240    1.0300    2.3130 h1        1 MOL     -0.012487
     17 H6         -4.2860    0.0030    3.5710 hc        1 MOL      0.029877
     18 H7         -3.0790   -0.9900    2.8940 hc        1 MOL      0.029877
     19 N2         -2.7210    3.3380    1.8120 n         1 MOL     -0.228390
     20 C7         -3.3040    4.7160    1.4130 c3        1 MOL     -0.259580
     21 C8         -4.4230    4.4600    0.2590 c         1 MOL      0.424308
     22 O5         -5.1070    5.4060   -0.1580 o         1 MOL     -0.537875
     23 C9         -2.1180    5.6590    1.1070 c3        1 MOL      0.351081
     24 C10        -1.6870    5.3360   -0.3490 c3        1 MOL     -0.017447
     25 C11        -0.9120    5.5780    2.0130 c3        1 MOL     -0.386092
     26 C12        -1.0130    6.4700   -1.1290 c3        1 MOL     -0.121080
     27 H8         -2.0340    2.9250    1.2040 hn        1 MOL      0.179767
     28 H9         -3.8610    5.0320    2.3020 h1        1 MOL      0.122428
     29 H10        -2.5600    6.6510    1.1350 hc        1 MOL     -0.051527
     30 H11        -2.5610    5.0960   -0.9690 hc        1 MOL      0.068860
     31 H12        -1.0640    4.4470   -0.4210 hc        1 MOL      0.068860
     32 H13        -0.2520    6.3740    1.6670 hc        1 MOL      0.084401
     33 H14        -1.2490    5.7290    3.0400 hc        1 MOL      0.084401
     34 H15        -0.4380    4.6040    1.9010 hc        1 MOL      0.084401
     35 H16        -1.6930    7.3140   -1.2960 hc        1 MOL      0.010936
     36 H17        -0.2130    6.8430   -0.4920 hc        1 MOL      0.010936
     37 H18        -0.6000    6.0960   -2.0680 hc        1 MOL      0.010936
     38 N3         -4.6430    3.2260   -0.2920 n         1 MOL     -0.037846
     39 C13        -5.7040    3.0560   -1.3270 c3        1 MOL     -0.432581
     40 C14        -7.0630    2.6620   -0.7570 c         1 MOL      0.713398
     41 O6         -8.0910    2.9900   -1.3680 o         1 MOL     -0.609478
     42 C15        -5.2740    2.0770   -2.4510 c3        1 MOL      0.081401
     43 C16        -3.9100    2.5430   -2.9520 c         1 MOL      0.566071
     44 O7         -3.8000    3.6390   -3.5690 o         1 MOL     -0.674230
     45 O8         -3.0140    1.6980   -2.8980 o         1 MOL     -0.674230
     46 H19        -4.1460    2.4090    0.0310 hn        1 MOL      0.102202
     47 H20        -5.9040    4.0010   -1.8230 h1        1 MOL      0.172508
     48 H21        -5.9150    1.9860   -3.3270 hc        1 MOL      0.023018
     49 H22        -5.0260    1.1290   -1.9870 hc        1 MOL      0.023018
     50 N4         -7.1380    1.8800    0.3010 n         1 MOL     -0.514450
     51 C17        -8.4040    1.1100    0.5470 c3        1 MOL      0.078538
     52 C18        -8.5870   -0.0940   -0.3050 c         1 MOL      0.426839
     53 O9         -9.7250   -0.6040   -0.3130 o         1 MOL     -0.577109
     54 H23        -6.2640    1.4820    0.6120 hn        1 MOL      0.284471
     55 H24        -9.2890    1.7450    0.5560 h1        1 MOL      0.056409
     56 H25        -8.4390    0.7500    1.5810 h1        1 MOL      0.056409
     57 N5         -7.4540   -0.5910   -0.8990 n         1 MOL     -0.066257
     58 C19        -7.4670   -1.8140   -1.6640 c3        1 MOL     -0.087534
     59 C20        -7.1900   -3.0430   -0.7420 c         1 MOL      0.480748
     60 O10        -7.3430   -4.1840   -1.1900 o         1 MOL     -0.581861
     61 C21        -6.4170   -1.6950   -2.8200 c3        1 MOL     -0.137862
     62 C22        -4.9890   -1.4410   -2.4170 c         1 MOL      0.650826
     63 O11        -4.1120   -1.1330   -3.3120 o         1 MOL     -0.711765
     64 O12        -4.5950   -1.7290   -1.2460 o         1 MOL     -0.711765
     65 H26        -6.5580   -0.1580   -0.7520 hn        1 MOL     -0.044798
     66 H27        -8.4470   -2.0900   -2.0540 h1        1 MOL      0.095406
     67 H28        -6.7130   -0.9480   -3.5540 hc        1 MOL      0.058597
     68 H29        -6.4790   -2.5970   -3.4310 hc        1 MOL      0.058597
     69 N6         -6.8270   -2.8670    0.5120 n         1 MOL     -0.167003
     70 C23        -6.5170   -3.9980    1.4180 c3        1 MOL     -0.153840
     71 C24        -5.1070   -4.6280    1.3830 c         1 MOL      0.524708
     72 O13        -4.8620   -5.7740    1.8810 o         1 MOL     -0.590953
     73 H30        -6.5490   -1.9140    0.6810 hn        1 MOL      0.166267
     74 H31        -7.2090   -4.8270    1.2840 h1        1 MOL      0.081794
     75 H32        -6.5730   -3.5260    2.3980 h1        1 MOL      0.081794
     76 N7         -4.0990   -3.9160    0.8380 n         1 MOL     -0.141485
     77 C25        -2.7220   -4.3130    0.7600 c3        1 MOL     -0.096717
     78 C26        -1.7070   -3.1030    0.9210 c         1 MOL      0.447526
     79 O14        -2.0060   -1.9410    0.6690 o         1 MOL     -0.515576
     80 C27        -2.4190   -5.2280   -0.4330 c3        1 MOL     -0.010138
     81 C28        -3.3090   -4.9250   -1.7620 c3        1 MOL     -0.309514
     82 C29        -2.7080   -3.7810   -2.5220 c         1 MOL      0.772660
     83 N8         -2.9120   -3.7600   -3.8250 n         1 MOL     -0.848517
     84 O15        -1.9640   -2.9130   -2.0040 o         1 MOL     -0.637709
     85 H33        -4.3690   -2.9970    0.5230 hn        1 MOL      0.193220
     86 H34        -2.5070   -4.9620    1.6170 h1        1 MOL      0.048457
     87 H35        -2.6960   -6.2330   -0.1360 hc        1 MOL      0.030646
     88 H36        -1.3730   -5.2610   -0.7300 hc        1 MOL      0.030646
     89 H37        -4.3500   -4.6390   -1.6130 hc        1 MOL      0.099340
     90 H38        -3.2060   -5.7970   -2.4050 hc        1 MOL      0.099340
     91 H39        -3.4970   -4.4130   -4.3210 hn        1 MOL      0.375226
     92 H40        -2.7810   -2.9290   -4.3930 hn        1 MOL      0.375226
     93 N9         -0.5750   -3.5750    1.4060 n         1 MOL     -0.314345
     94 C30         0.5020   -2.6340    1.8270 c3        1 MOL      0.010758
     95 C31         1.7740   -2.8630    1.0120 c         1 MOL      0.264677
     96 O16         2.5770   -3.7480    1.2670 o         1 MOL     -0.535116
     97 C32         0.8400   -2.7800    3.3270 c3        1 MOL      0.321566
     98 C33         1.7560   -1.5400    3.6860 c3        1 MOL     -0.399020
     99 C34        -0.3810   -2.8150    4.2590 c3        1 MOL     -0.399020
    100 H41        -0.5480   -4.5480    1.6710 hn        1 MOL      0.272084
    101 H42         0.2580   -1.5920    1.6000 h1        1 MOL      0.127940
    102 H43         1.3650   -3.7210    3.5220 hc        1 MOL     -0.033369
    103 H44         2.6830   -1.5920    3.1080 hc        1 MOL      0.084655
    104 H45         1.2820   -0.5910    3.4290 hc        1 MOL      0.084655
    105 H46         1.8870   -1.5190    4.7600 hc        1 MOL      0.084655
    106 H47        -0.9810   -3.6320    3.8640 hc        1 MOL      0.084655
    107 H48        -0.1870   -2.9090    5.3280 hc        1 MOL      0.084655
    108 H49        -1.0230   -1.9410    4.1270 hc        1 MOL      0.084655
    109 N10         2.0660   -2.0410    0.0580 n         1 MOL     -0.047416
    110 C35         3.2400   -2.0350   -0.8150 c3        1 MOL      0.002957
    111 C36         4.5910   -1.7860   -0.0390 c         1 MOL      0.310749
    112 O17         4.6100   -1.3450    1.1250 o         1 MOL     -0.293223
    113 C37         2.9600   -0.9180   -1.8930 c3        1 MOL     -0.337576
    114 C38         3.6460   -1.2820   -3.2170 c         1 MOL      0.753121
    115 N11         2.9470   -2.0470   -4.1400 n         1 MOL     -0.933944
    116 O18         4.7900   -1.0190   -3.4630 o         1 MOL     -0.541502
    117 H50         1.3150   -1.4270   -0.1940 hn        1 MOL      0.171512
    118 H51         3.2760   -3.0370   -1.2270 h1        1 MOL      0.077742
    119 H52         3.1620    0.0720   -1.4720 hc        1 MOL      0.136770
    120 H53         1.9130   -1.0620   -2.1880 hc        1 MOL      0.136770
    121 H54         1.9840   -2.2880   -4.0200 hn        1 MOL      0.407973
    122 H55         3.4660   -2.1170   -5.0080 hn        1 MOL      0.407973
    123 N12         5.7450   -2.0870   -0.6830 n         1 MOL     -0.477673
    124 C39         7.0720   -1.5610   -0.1140 c3        1 MOL      0.347463
    125 C40         7.0300   -0.0490   -0.1060 c         1 MOL      0.547534
    126 O19         7.5490    0.5510    0.8260 o         1 MOL     -0.570030
    127 C41         8.2640   -2.1520   -0.8940 c3        1 MOL     -0.230007
    128 C42         9.6660   -1.8570   -0.3290 ca        1 MOL      0.259516
    129 C43        10.0770   -2.3230    0.9580 ca        1 MOL     -0.381619
    130 C44        10.6000   -1.1420   -1.1190 ca        1 MOL     -0.381619
    131 C45        11.3250   -2.0340    1.4220 ca        1 MOL     -0.035651
    132 C46        11.8580   -0.7390   -0.5410 ca        1 MOL     -0.035651
    133 C47        12.2620   -1.3510    0.6730 ca        1 MOL      0.138474
    134 O20        13.5110   -1.1080    1.1580 oh        1 MOL     -0.478219
    135 H56         5.7040   -2.6560   -1.5120 hn        1 MOL      0.280704
    136 H57         7.1080   -2.0080    0.8820 h1        1 MOL      0.012301
    137 H58         8.2110   -1.8950   -1.9480 hc        1 MOL      0.056182
    138 H59         8.0850   -3.2240   -0.7970 hc        1 MOL      0.056182
    139 H60         9.4970   -3.0050    1.5610 ha        1 MOL      0.185134
    140 H61        10.2320   -0.7570   -2.0620 ha        1 MOL      0.185134
    141 H62        11.6570   -2.5590    2.3010 ha        1 MOL      0.098172
    142 H63        12.5390   -0.0340   -0.9840 ha        1 MOL      0.098172
    143 H64        13.9570   -0.5100    0.5500 ho        1 MOL      0.357565
    144 N13         6.4440    0.5840   -1.0920 n         1 MOL     -0.464250
    145 C48         6.3090    2.0250   -1.1450 c3        1 MOL      0.041113
    146 C49         5.4310    2.6240    0.0350 c         1 MOL      0.315723
    147 O21         5.6180    3.7510    0.4750 o         1 MOL     -0.493851
    148 C50         5.7770    2.4850   -2.4990 c3        1 MOL     -0.066083
    149 C51         6.6830    2.1040   -3.6900 c3        1 MOL     -0.148813
    150 C52         6.0220    2.7420   -4.8700 c         1 MOL      0.669001
    151 O22         6.2340    4.0040   -5.0590 o         1 MOL     -0.732389
    152 O23         5.3420    2.0250   -5.6500 o         1 MOL     -0.732389
    153 H65         6.1250   -0.0650   -1.7920 hn        1 MOL      0.248723
    154 H66         7.3120    2.4470   -1.0210 h1        1 MOL      0.091883
    155 H67         5.7210    3.5560   -2.3090 hc        1 MOL      0.056530
    156 H68         4.7780    2.0860   -2.6990 hc        1 MOL      0.056530
    157 H69         6.6400    1.0270   -3.8200 hc        1 MOL      0.016062
    158 H70         7.7150    2.4590   -3.5730 hc        1 MOL      0.016062
    159 N14         4.4990    1.7980    0.4600 n         1 MOL      0.044866
    160 C53         3.5910    2.0260    1.5780 c3        1 MOL     -0.045711
    161 C54         4.2270    1.6890    2.9200 c         1 MOL      0.409173
    162 O24         3.9890    2.4730    3.8670 o         1 MOL     -0.580846
    163 C55         2.2120    1.3260    1.3450 c3        1 MOL      0.032920
    164 C56         1.3440    1.8950    0.2440 c3        1 MOL     -0.219475
    165 C57         0.1120    1.0910   -0.1600 c         1 MOL      0.895142
    166 O25        -1.0400    1.5390    0.1050 o         1 MOL     -0.863790
    167 O26         0.2550    0.0390   -0.7970 o         1 MOL     -0.863790
    168 H71         4.1220    1.1000   -0.1720 hn        1 MOL      0.004825
    169 H72         3.3810    3.0860    1.6040 h1        1 MOL      0.071701
    170 H73         1.5730    1.3720    2.2280 hc        1 MOL      0.080145
    171 H74         2.4760    0.3000    1.0800 hc        1 MOL      0.080145
    172 H75         1.9280    1.9290   -0.6800 hc        1 MOL      0.046803
    173 H76         1.0020    2.8990    0.4760 hc        1 MOL      0.046803
    174 N15         4.9970    0.6610    3.0610 n         1 MOL      0.034121
    175 C58         5.8610    0.2630    4.1760 c3        1 MOL     -0.330281
    176 H77         6.6640   -0.3730    3.8040 h1        1 MOL      0.109654
    177 H78         6.2890    1.1520    4.6400 h1        1 MOL      0.109654
    178 H79         5.2750   -0.2870    4.9130 h1        1 MOL      0.109654
    179 H80         5.1600    0.0790    2.2440 hn        1 MOL     -0.008947
    180 Ca1        -2.3500   -0.3390   -1.4570 Ca        1 MOL      1.813713
    181 O27        -0.7480   -0.0590   -3.5090 oh        1 MOL     -0.836882
    182 H81        -0.4700   -0.2190   -4.4150 ho        1 MOL      0.411210
    183 H82        -0.3250    0.7680   -3.2720 ho        1 MOL      0.411210
@<TRIPOS>BOND
     1    1    2 1   
     2    1    4 1   
     3    1    5 1   
     4    1    6 1   
     5    2    3 2   
     6    2    7 1   
     7    7    8 1   
     8    7   15 1   
     9    8    9 1   
    10    8   11 1   
    11    8   16 1   
    12    9   10 2   
    13    9   19 1   
    14   11   12 1   
    15   11   17 1   
    16   11   18 1   
    17   12   13 1   
    18   12   14 1   
    19   19   20 1   
    20   19   27 1   
    21   20   21 1   
    22   20   23 1   
    23   20   28 1   
    24   21   22 2   
    25   21   38 1   
    26   23   24 1   
    27   23   25 1   
    28   23   29 1   
    29   24   26 1   
    30   24   30 1   
    31   24   31 1   
    32   25   32 1   
    33   25   33 1   
    34   25   34 1   
    35   26   35 1   
    36   26   36 1   
    37   26   37 1   
    38   38   39 1   
    39   38   46 1   
    40   39   40 1   
    41   39   42 1   
    42   39   47 1   
    43   40   41 2   
    44   40   50 1   
    45   42   43 1   
    46   42   48 1   
    47   42   49 1   
    48   43   44 1   
    49   43   45 1   
    50   50   51 1   
    51   50   54 1   
    52   51   52 1   
    53   51   55 1   
    54   51   56 1   
    55   52   53 2   
    56   52   57 1   
    57   57   58 1   
    58   57   65 1   
    59   58   59 1   
    60   58   61 1   
    61   58   66 1   
    62   59   60 2   
    63   59   69 1   
    64   61   62 1   
    65   61   67 1   
    66   61   68 1   
    67   62   63 1   
    68   62   64 1   
    69   69   70 1   
    70   69   73 1   
    71   70   71 1   
    72   70   74 1   
    73   70   75 1   
    74   71   72 2   
    75   71   76 1   
    76   76   77 1   
    77   76   85 1   
    78   77   78 1   
    79   77   80 1   
    80   77   86 1   
    81   78   79 2   
    82   78   93 1   
    83   80   81 1   
    84   80   87 1   
    85   80   88 1   
    86   81   82 1   
    87   81   89 1   
    88   81   90 1   
    89   82   83 1   
    90   82   84 2   
    91   83   91 1   
    92   83   92 1   
    93   93   94 1   
    94   93  100 1   
    95   94   95 1   
    96   94   97 1   
    97   94  101 1   
    98   95   96 2   
    99   95  109 1   
   100   97   98 1   
   101   97   99 1   
   102   97  102 1   
   103   98  103 1   
   104   98  104 1   
   105   98  105 1   
   106   99  106 1   
   107   99  107 1   
   108   99  108 1   
   109  109  110 1   
   110  109  117 1   
   111  110  111 1   
   112  110  113 1   
   113  110  118 1   
   114  111  112 2   
   115  111  123 1   
   116  113  114 1   
   117  113  119 1   
   118  113  120 1   
   119  114  115 1   
   120  114  116 2   
   121  115  121 1   
   122  115  122 1   
   123  123  124 1   
   124  123  135 1   
   125  124  125 1   
   126  124  127 1   
   127  124  136 1   
   128  125  126 2   
   129  125  144 1   
   130  127  128 1   
   131  127  137 1   
   132  127  138 1   
   133  128  129 ar  
   134  128  130 ar  
   135  129  131 ar  
   136  129  139 1   
   137  130  132 ar  
   138  130  140 1   
   139  131  133 ar  
   140  131  141 1   
   141  132  133 ar  
   142  132  142 1   
   143  133  134 1   
   144  134  143 1   
   145  144  145 1   
   146  144  153 1   
   147  145  146 1   
   148  145  148 1   
   149  145  154 1   
   150  146  147 2   
   151  146  159 1   
   152  148  149 1   
   153  148  155 1   
   154  148  156 1   
   155  149  150 1   
   156  149  157 1   
   157  149  158 1   
   158  150  151 1   
   159  150  152 1   
   160  159  160 1   
   161  159  168 1   
   162  160  161 1   
   163  160  163 1   
   164  160  169 1   
   165  161  162 2   
   166  161  174 1   
   167  163  164 1   
   168  163  170 1   
   169  163  171 1   
   170  164  165 1   
   171  164  172 1   
   172  164  173 1   
   173  165  166 1   
   174  165  167 1   
   175  174  175 1   
   176  174  179 1   
   177  175  176 1   
   178  175  177 1   
   179  175  178 1   
   180  181  182 1   
   181  181  183 1   
@<TRIPOS>SUBSTRUCTURE
     1 MOL         1 TEMP              0 ****  ****    0 ROOT
