@<TRIPOS>MOLECULE
MOL
  189   185     1     0     0
SMALL
resp


@<TRIPOS>ATOM
      1 C1          0.2660    4.1810   -4.2060 c3        1 MOL     -0.418875
      2 C2          0.8520    3.4910   -2.9010 c         1 MOL      0.718959
      3 O1          0.1970    3.5810   -1.8870 o         1 MOL     -0.570132
      4 H1         -0.8160    4.2750   -4.1110 hc        1 MOL      0.098186
      5 H2          0.7080    5.1710   -4.3240 hc        1 MOL      0.098186
      6 H3          0.5020    3.5710   -5.0780 hc        1 MOL      0.098186
      7 N1          2.0600    2.8130   -3.0760 n         1 MOL     -0.670371
      8 C3          2.7980    2.2010   -2.0160 c3        1 MOL      0.380638
      9 C4          3.6930    3.2600   -1.3440 c         1 MOL      0.306170
     10 O2          4.9170    3.2200   -1.4920 o         1 MOL     -0.432824
     11 C5          3.5660    0.9870   -2.4920 c3        1 MOL     -0.147837
     12 C6          4.1700    0.1720   -1.2530 c         1 MOL      0.573864
     13 O3          3.8150    0.4320   -0.0640 o         1 MOL     -0.609342
     14 O4          5.1010   -0.6160   -1.4670 o         1 MOL     -0.609342
     15 H4          2.3720    2.6300   -4.0200 hn        1 MOL      0.327857
     16 H5          2.1430    1.8340   -1.2250 h1        1 MOL     -0.037145
     17 H6          4.3610    1.2590   -3.1740 hc        1 MOL      0.047926
     18 H7          2.8750    0.3680   -3.0610 hc        1 MOL      0.047926
     19 N2          2.9880    4.1780   -0.6660 n         1 MOL     -0.368695
     20 C7          3.5850    5.2840    0.1160 c3        1 MOL      0.057420
     21 C8          4.4640    4.7240    1.1910 c         1 MOL      0.432159
     22 O5          5.6050    5.0600    1.2820 o         1 MOL     -0.520194
     23 C9          2.4710    6.2390    0.6870 c3        1 MOL     -0.173088
     24 C10         1.7920    7.0930   -0.3560 c3        1 MOL      0.100981
     25 C11         0.5730    7.8670    0.1700 c3        1 MOL      0.059508
     26 C12        -0.0950    8.9330   -0.7020 c3        1 MOL     -0.097575
     27 N3         -0.5950    8.2690   -1.9170 n4        1 MOL     -0.343254
     28 H8          1.9920    4.0200   -0.5580 hn        1 MOL      0.312948
     29 H9          4.2230    5.8480   -0.5590 h1        1 MOL      0.088200
     30 H10         2.9350    6.8780    1.4440 hc        1 MOL      0.069279
     31 H11         1.7530    5.6470    1.2560 hc        1 MOL      0.069279
     32 H12         1.4970    6.5150   -1.2290 hc        1 MOL     -0.027789
     33 H13         2.4820    7.8780   -0.6600 hc        1 MOL     -0.027789
     34 H14         0.8480    8.3850    1.0850 hc        1 MOL      0.021765
     35 H15        -0.2310    7.1940    0.4980 hc        1 MOL      0.021765
     36 H16         0.6120    9.7460   -0.9000 hx        1 MOL      0.123174
     37 H17        -0.9530    9.3320   -0.1650 hx        1 MOL      0.123174
     38 H18        -1.1240    7.4560   -1.6310 hn        1 MOL      0.330533
     39 H19        -1.2040    8.8800   -2.4450 hn        1 MOL      0.330533
     40 H20         0.1260    7.9030   -2.5250 hn        1 MOL      0.330533
     41 N4          4.0510    3.7500    1.9990 n         1 MOL     -0.330748
     42 C13         4.8730    3.0950    3.0870 c3        1 MOL      0.115951
     43 C14         5.9790    2.2610    2.5900 c         1 MOL      0.321776
     44 O6          7.0130    2.1780    3.3370 o         1 MOL     -0.555102
     45 C15         3.9870    2.2940    4.0580 c3        1 MOL     -0.393148
     46 C16         3.3390    1.1250    3.3200 c         1 MOL      0.934889
     47 O7          2.2140    1.2390    2.8230 o         1 MOL     -0.810448
     48 O8          3.9580    0.0950    3.0800 o         1 MOL     -0.810448
     49 H21         3.1600    3.3060    1.8150 hn        1 MOL      0.194708
     50 H22         5.2870    3.8900    3.7090 h1        1 MOL      0.100237
     51 H23         3.2600    2.9480    4.5350 hc        1 MOL      0.096079
     52 H24         4.6150    1.8690    4.8350 hc        1 MOL      0.096079
     53 N5          5.9950    1.5840    1.4250 n         1 MOL      0.259006
     54 C17         7.2050    1.1330    0.7780 c3        1 MOL     -0.438098
     55 C18         7.5710   -0.4060    1.0150 c         1 MOL      0.612001
     56 O9          8.6710   -0.8640    0.6820 o         1 MOL     -0.578863
     57 H25         5.1980    1.3780    0.8390 hn        1 MOL     -0.045468
     58 H26         8.0200    1.8080    1.0530 h1        1 MOL      0.159754
     59 H27         7.0960    1.2070   -0.2960 h1        1 MOL      0.159754
     60 N6          6.7130   -1.2000    1.5970 n         1 MOL     -0.312356
     61 C19         6.9250   -2.6010    1.7920 c3        1 MOL     -0.038725
     62 C20         6.8640   -3.3580    0.4020 c         1 MOL      0.424927
     63 O10         7.3290   -4.5080    0.3740 o         1 MOL     -0.557311
     64 C21         5.8230   -3.2360    2.7940 c3        1 MOL     -0.150498
     65 C22         4.3730   -3.1090    2.3140 c         1 MOL      0.797462
     66 O11         3.4860   -3.0870    3.1910 o         1 MOL     -0.664975
     67 O12         4.0420   -2.9610    1.1540 o         1 MOL     -0.664975
     68 H28         5.7410   -0.9300    1.6350 hn        1 MOL      0.195148
     69 H29         7.8800   -2.7780    2.2830 h1        1 MOL      0.123569
     70 H30         5.9690   -2.9760    3.8400 hc        1 MOL      0.052119
     71 H31         5.9700   -4.3140    2.8180 hc        1 MOL      0.052119
     72 N7          6.5020   -2.7690   -0.7120 n         1 MOL     -0.074575
     73 C23         6.4410   -3.5350   -1.9450 c3        1 MOL     -0.356995
     74 C24         5.1130   -4.1350   -2.2780 c         1 MOL      0.685679
     75 O13         5.0280   -5.0520   -3.0560 o         1 MOL     -0.596699
     76 H32         6.0330   -1.8730   -0.6800 hn        1 MOL      0.215162
     77 H33         7.1530   -4.3620   -1.9040 h1        1 MOL      0.135121
     78 H34         6.6450   -2.8150   -2.7390 h1        1 MOL      0.135121
     79 N8          4.0620   -3.6480   -1.6360 n         1 MOL     -0.365872
     80 C25         2.6870   -4.1920   -1.9130 c3        1 MOL     -0.196752
     81 C26         1.5630   -3.2540   -1.5090 c         1 MOL      0.697764
     82 O14         1.8070   -2.3590   -0.7560 o         1 MOL     -0.664656
     83 C27         2.4170   -5.4730   -1.0520 c3        1 MOL      0.418629
     84 C28         3.4160   -6.6850   -1.2540 c3        1 MOL     -0.513329
     85 O15         2.4410   -5.2750    0.4170 oh        1 MOL     -0.602268
     86 H35         4.1830   -3.0640   -0.8130 hn        1 MOL      0.237633
     87 H36         2.6120   -4.4360   -2.9690 h1        1 MOL      0.107480
     88 H37         1.4670   -5.8440   -1.4150 h1        1 MOL      0.003995
     89 H38         3.1730   -4.6720    0.5520 ho        1 MOL      0.379125
     90 H39         4.3680   -6.3920   -0.8110 hc        1 MOL      0.134892
     91 H40         2.9720   -7.5080   -0.6800 hc        1 MOL      0.134892
     92 H41         3.4460   -7.0000   -2.2890 hc        1 MOL      0.134892
     93 N9          0.3420   -3.4980   -2.0240 n         1 MOL     -0.682255
     94 C29        -0.7220   -2.3720   -1.9810 c3        1 MOL     -0.136672
     95 C30        -2.0620   -3.0850   -1.6680 c         1 MOL      0.597835
     96 O16        -2.4400   -3.9940   -2.4250 o         1 MOL     -0.563653
     97 C31        -0.8650   -1.7090   -3.4180 c3        1 MOL      0.307660
     98 C32         0.4090   -1.4110   -4.1660 c3        1 MOL      0.115932
     99 C33        -1.7420   -0.4830   -3.2850 c3        1 MOL     -0.646883
    100 C34         0.3660   -0.6800   -5.5630 c3        1 MOL     -0.390322
    101 H42         0.1930   -4.3280   -2.5720 hn        1 MOL      0.338188
    102 H43        -0.4550   -1.5930   -1.2720 h1        1 MOL      0.190819
    103 H44        -1.5200   -2.3930   -3.9460 hc        1 MOL     -0.007563
    104 H45         0.8870   -2.3510   -4.4300 hc        1 MOL      0.011991
    105 H46         1.0620   -0.7370   -3.6040 hc        1 MOL      0.011991
    106 H47        -2.5820   -0.6720   -2.6220 hc        1 MOL      0.131120
    107 H48        -1.1260    0.3310   -2.9080 hc        1 MOL      0.131120
    108 H49        -2.1690   -0.2870   -4.2660 hc        1 MOL      0.131120
    109 H50        -0.1790    0.2500   -5.3870 hc        1 MOL      0.096472
    110 H51         1.3940   -0.4640   -5.8550 hc        1 MOL      0.096472
    111 H52        -0.1850   -1.2980   -6.2780 hc        1 MOL      0.096472
    112 N10        -2.7980   -2.6250   -0.6800 n         1 MOL     -0.201781
    113 C35        -4.2180   -2.9800   -0.3140 c3        1 MOL     -0.179641
    114 C36        -5.3170   -2.1760   -1.0150 c         1 MOL      0.543417
    115 O17        -5.0120   -1.3180   -1.8540 o         1 MOL     -0.402838
    116 C37        -4.3890   -2.8810    1.2480 c3        1 MOL      0.288363
    117 C38        -3.4760   -3.8600    2.0020 c3        1 MOL     -0.432061
    118 O18        -3.9900   -1.5620    1.7180 oh        1 MOL     -0.650184
    119 H53        -2.2400   -2.0520   -0.0600 hn        1 MOL      0.169047
    120 H54        -4.3470   -4.0380   -0.5310 h1        1 MOL      0.095284
    121 H55        -5.4030   -3.0650    1.5890 h1        1 MOL      0.033506
    122 H56        -3.1260   -1.2870    1.4030 ho        1 MOL      0.451069
    123 H57        -3.9350   -4.8550    2.0720 hc        1 MOL      0.118572
    124 H58        -2.4710   -4.0340    1.6270 hc        1 MOL      0.118572
    125 H59        -3.3520   -3.5240    3.0310 hc        1 MOL      0.118572
    126 N11        -6.6040   -2.4720   -0.6700 n         1 MOL     -0.438196
    127 C39        -7.7320   -1.7530   -1.2180 c3        1 MOL      0.004345
    128 C40        -7.6430   -0.2900   -0.8890 c         1 MOL      0.301674
    129 O19        -7.7800    0.5470   -1.7730 o         1 MOL     -0.464820
    130 C41        -9.0170   -2.3650   -0.6520 c3        1 MOL      0.296948
    131 C42        -9.4530   -3.6870   -1.2840 c3        1 MOL     -0.539331
    132 O20        -8.8550   -2.6620    0.7360 oh        1 MOL     -0.568939
    133 H60        -6.8390   -3.0300    0.1280 hn        1 MOL      0.262694
    134 H61        -7.7470   -1.7370   -2.3000 h1        1 MOL      0.107802
    135 H62        -9.7700   -1.5850   -0.7390 h1        1 MOL      0.023361
    136 H63        -9.6750   -2.4760    1.1940 ho        1 MOL      0.311715
    137 H64       -10.3700   -4.1120   -0.8680 hc        1 MOL      0.159788
    138 H65        -9.6390   -3.4830   -2.3340 hc        1 MOL      0.159788
    139 H66        -8.6480   -4.4060   -1.1710 hc        1 MOL      0.159788
    140 N12        -7.4460   -0.0190    0.4140 n         1 MOL     -0.124065
    141 C43        -7.3670    1.3070    1.0150 c3        1 MOL     -0.153010
    142 C44        -6.1770    2.1950    0.5640 c         1 MOL      0.409034
    143 O21        -6.4070    3.3690    0.4660 o         1 MOL     -0.514437
    144 C45        -7.3750    1.1700    2.5550 c3        1 MOL     -0.149073
    145 C46        -8.8110    0.7280    3.0680 c3        1 MOL     -0.030545
    146 C47        -8.6900    0.4470    4.6170 c3        1 MOL      0.092357
    147 C48       -10.1220   -0.0600    5.1030 c3        1 MOL     -0.151473
    148 N13       -10.5880   -1.2830    4.3910 n4        1 MOL     -0.302228
    149 H67        -7.2150   -0.8650    0.9220 hn        1 MOL      0.198120
    150 H68        -8.2830    1.8620    0.8010 h1        1 MOL      0.111443
    151 H69        -7.2340    2.1040    3.0840 hc        1 MOL      0.088995
    152 H70        -6.5400    0.5460    2.8890 hc        1 MOL      0.088995
    153 H71        -9.2530   -0.1580    2.6050 hc        1 MOL      0.020761
    154 H72        -9.5100    1.5610    3.0000 hc        1 MOL      0.020761
    155 H73        -8.2450    1.2680    5.1880 hc        1 MOL      0.020941
    156 H74        -7.9640   -0.3580    4.7270 hc        1 MOL      0.020941
    157 H75       -10.8230    0.7720    5.0490 hx        1 MOL      0.133829
    158 H76       -10.0250   -0.2940    6.1670 hx        1 MOL      0.133829
    159 H77       -11.3090   -1.6260    5.0110 hn        1 MOL      0.262373
    160 H78       -10.9340   -1.1000    3.4550 hn        1 MOL      0.262373
    161 H79        -9.8430   -1.9570    4.2500 hn        1 MOL      0.262373
    162 N14        -5.0420    1.6340    0.2760 n         1 MOL     -0.044241
    163 C49        -3.9700    2.3020   -0.3980 c3        1 MOL     -0.196788
    164 C50        -4.2700    2.7820   -1.8870 c         1 MOL      0.469026
    165 O22        -3.6550    3.8020   -2.3210 o         1 MOL     -0.555992
    166 C51        -2.8180    1.3440   -0.3920 c3        1 MOL      0.018840
    167 C52        -2.0690    1.3090    0.9170 c3        1 MOL     -0.047826
    168 C53        -1.0250    0.1930    0.8440 c         1 MOL      0.792077
    169 O23         0.1380    0.3410    0.4330 o         1 MOL     -0.741263
    170 O24        -1.5610   -0.8710    1.3340 o         1 MOL     -0.741263
    171 H80        -4.9750    0.6470    0.4910 hn        1 MOL      0.138849
    172 H81        -3.6660    3.1340    0.2420 h1        1 MOL      0.108042
    173 H82        -2.0740    1.6690   -1.1260 hc        1 MOL      0.072127
    174 H83        -3.1370    0.3300   -0.6430 hc        1 MOL      0.072127
    175 H84        -2.8460    1.0550    1.6460 hc        1 MOL     -0.029774
    176 H85        -1.5030    2.1930    1.2010 hc        1 MOL     -0.029774
    177 N15        -5.1180    2.0640   -2.6720 n         1 MOL     -0.182106
    178 C54        -5.7370    2.5830   -3.8900 c3        1 MOL     -0.211568
    179 H86        -6.8160    2.6470   -3.7490 h1        1 MOL      0.098364
    180 H87        -5.3410    3.5750   -4.1060 h1        1 MOL      0.098364
    181 H88        -5.5190    1.9140   -4.7220 h1        1 MOL      0.098364
    182 H89        -5.3720    1.1380   -2.3550 hn        1 MOL      0.208859
    183 Ca1         2.1320   -0.9630    1.3990 Ca        1 MOL      1.757529
    184 O25         1.2070   -1.0580    3.9640 oh        1 MOL     -0.775409
    185 H90         0.3450   -1.2900    4.3120 ho        1 MOL      0.377911
    186 H91         1.5760   -0.4730    4.6180 ho        1 MOL      0.377911
    187 O26         0.3470   -2.7980    1.7430 oh        1 MOL     -0.775409
    188 H92        -0.4920   -2.3470    1.8500 ho        1 MOL      0.377911
    189 H93         0.1500   -3.7190    1.8880 ho        1 MOL      0.377911
@<TRIPOS>BOND
     1    1    2 1   
     2    1    4 1   
     3    1    5 1   
     4    1    6 1   
     5    2    3 2   
     6    2    7 1   
     7    7    8 1   
     8    7   15 1   
     9    8    9 1   
    10    8   11 1   
    11    8   16 1   
    12    9   10 2   
    13    9   19 1   
    14   11   12 1   
    15   11   17 1   
    16   11   18 1   
    17   12   13 1   
    18   12   14 1   
    19   19   20 1   
    20   19   28 1   
    21   20   21 1   
    22   20   23 1   
    23   20   29 1   
    24   21   22 2   
    25   21   41 1   
    26   23   24 1   
    27   23   30 1   
    28   23   31 1   
    29   24   25 1   
    30   24   32 1   
    31   24   33 1   
    32   25   26 1   
    33   25   34 1   
    34   25   35 1   
    35   26   27 1   
    36   26   36 1   
    37   26   37 1   
    38   27   38 1   
    39   27   39 1   
    40   27   40 1   
    41   41   42 1   
    42   41   49 1   
    43   42   43 1   
    44   42   45 1   
    45   42   50 1   
    46   43   44 2   
    47   43   53 1   
    48   45   46 1   
    49   45   51 1   
    50   45   52 1   
    51   46   47 1   
    52   46   48 1   
    53   53   54 1   
    54   53   57 1   
    55   54   55 1   
    56   54   58 1   
    57   54   59 1   
    58   55   56 2   
    59   55   60 1   
    60   60   61 1   
    61   60   68 1   
    62   61   62 1   
    63   61   64 1   
    64   61   69 1   
    65   62   63 2   
    66   62   72 1   
    67   64   65 1   
    68   64   70 1   
    69   64   71 1   
    70   65   66 1   
    71   65   67 1   
    72   72   73 1   
    73   72   76 1   
    74   73   74 1   
    75   73   77 1   
    76   73   78 1   
    77   74   75 2   
    78   74   79 1   
    79   79   80 1   
    80   79   86 1   
    81   80   81 1   
    82   80   83 1   
    83   80   87 1   
    84   81   82 2   
    85   81   93 1   
    86   83   84 1   
    87   83   85 1   
    88   83   88 1   
    89   84   90 1   
    90   84   91 1   
    91   84   92 1   
    92   85   89 1   
    93   93   94 1   
    94   93  101 1   
    95   94   95 1   
    96   94   97 1   
    97   94  102 1   
    98   95   96 2   
    99   95  112 1   
   100   97   98 1   
   101   97   99 1   
   102   97  103 1   
   103   98  100 1   
   104   98  104 1   
   105   98  105 1   
   106   99  106 1   
   107   99  107 1   
   108   99  108 1   
   109  100  109 1   
   110  100  110 1   
   111  100  111 1   
   112  112  113 1   
   113  112  119 1   
   114  113  114 1   
   115  113  116 1   
   116  113  120 1   
   117  114  115 2   
   118  114  126 1   
   119  116  117 1   
   120  116  118 1   
   121  116  121 1   
   122  117  123 1   
   123  117  124 1   
   124  117  125 1   
   125  118  122 1   
   126  126  127 1   
   127  126  133 1   
   128  127  128 1   
   129  127  130 1   
   130  127  134 1   
   131  128  129 2   
   132  128  140 1   
   133  130  131 1   
   134  130  132 1   
   135  130  135 1   
   136  131  137 1   
   137  131  138 1   
   138  131  139 1   
   139  132  136 1   
   140  140  141 1   
   141  140  149 1   
   142  141  142 1   
   143  141  144 1   
   144  141  150 1   
   145  142  143 2   
   146  142  162 1   
   147  144  145 1   
   148  144  151 1   
   149  144  152 1   
   150  145  146 1   
   151  145  153 1   
   152  145  154 1   
   153  146  147 1   
   154  146  155 1   
   155  146  156 1   
   156  147  148 1   
   157  147  157 1   
   158  147  158 1   
   159  148  159 1   
   160  148  160 1   
   161  148  161 1   
   162  162  163 1   
   163  162  171 1   
   164  163  164 1   
   165  163  166 1   
   166  163  172 1   
   167  164  165 2   
   168  164  177 1   
   169  166  167 1   
   170  166  173 1   
   171  166  174 1   
   172  167  168 1   
   173  167  175 1   
   174  167  176 1   
   175  168  169 1   
   176  168  170 1   
   177  177  178 1   
   178  177  182 1   
   179  178  179 1   
   180  178  180 1   
   181  178  181 1   
   182  184  185 1   
   183  184  186 1   
   184  187  188 1   
   185  187  189 1   
@<TRIPOS>SUBSTRUCTURE
     1 MOL         1 TEMP              0 ****  ****    0 ROOT
