@<TRIPOS>MOLECULE
MOL
  186   183     1     0     0
SMALL
resp


@<TRIPOS>ATOM
      1 C1          0.2220   -1.6280    6.3760 c3        1 MOL     -0.487162
      2 C2          0.4820   -1.5440    4.8300 c         1 MOL      0.848629
      3 O1          0.7000   -0.5230    4.2610 o         1 MOL     -0.591784
      4 H1         -0.8520   -1.6320    6.5630 hc        1 MOL      0.115662
      5 H2          0.6620   -2.5430    6.7710 hc        1 MOL      0.115662
      6 H3          0.6720   -0.7660    6.8690 hc        1 MOL      0.115662
      7 N1          0.7870   -2.7610    4.3160 n         1 MOL     -0.698858
      8 C3          1.6560   -2.8820    3.0740 c3        1 MOL      0.364400
      9 C4          1.2960   -4.1980    2.4530 c         1 MOL      0.419875
     10 O2          1.2820   -5.1930    3.2340 o         1 MOL     -0.587724
     11 C5          3.1580   -2.7640    3.4550 c3        1 MOL     -0.197784
     12 C6          4.0700   -2.5180    2.2340 c         1 MOL      0.625837
     13 O3          5.2390   -2.9090    2.3070 o         1 MOL     -0.649416
     14 O4          3.5670   -2.0280    1.2320 o         1 MOL     -0.649416
     15 H4          0.6870   -3.6010    4.8660 hn        1 MOL      0.330275
     16 H5          1.3180   -2.0880    2.4080 h1        1 MOL     -0.241082
     17 H6          3.5540   -3.6940    3.8840 hc        1 MOL      0.046153
     18 H7          3.2220   -2.0140    4.2400 hc        1 MOL      0.046153
     19 N2          1.2290   -4.2620    1.1150 n         1 MOL      0.004541
     20 C7          1.3920   -5.4170    0.2180 c3        1 MOL     -0.215776
     21 C8          2.5110   -5.3380   -0.8340 c         1 MOL      0.471498
     22 O5          2.7040   -6.3050   -1.5620 o         1 MOL     -0.541028
     23 C9          0.1130   -5.9670   -0.4010 c3        1 MOL      0.134302
     24 C10        -0.3730   -5.0950   -1.5710 c3        1 MOL     -0.143760
     25 C11        -0.9470   -5.9960    0.7150 c3        1 MOL     -0.115171
     26 C12        -1.6440   -5.5290   -2.2720 c3        1 MOL     -0.065571
     27 H8          1.2500   -3.3930    0.5980 hn        1 MOL      0.158210
     28 H9          1.6990   -6.2740    0.8220 h1        1 MOL      0.095421
     29 H10         0.2870   -6.9440   -0.8350 hc        1 MOL      0.005960
     30 H11         0.4280   -5.1050   -2.3070 hc        1 MOL      0.073863
     31 H12        -0.6070   -4.1170   -1.1530 hc        1 MOL      0.073863
     32 H13        -1.7960   -6.5750    0.3600 hc        1 MOL      0.020099
     33 H14        -0.6440   -6.6100    1.5650 hc        1 MOL      0.020099
     34 H15        -1.3380   -5.0530    1.0950 hc        1 MOL      0.020099
     35 H16        -2.5830   -5.5810   -1.7060 hc        1 MOL      0.019367
     36 H17        -1.8070   -4.8290   -3.0950 hc        1 MOL      0.019367
     37 H18        -1.5200   -6.4410   -2.8520 hc        1 MOL      0.019367
     38 N3          3.2060   -4.1850   -1.0290 n         1 MOL     -0.346103
     39 C13         4.1580   -4.0830   -2.1930 c3        1 MOL      0.071080
     40 C14         5.5750   -3.5490   -1.7650 c         1 MOL      0.466671
     41 O6          6.5340   -3.6610   -2.5510 o         1 MOL     -0.554042
     42 C15         3.5590   -3.2220   -3.3570 c3        1 MOL     -0.106815
     43 C16         3.1090   -1.7640   -3.0070 c         1 MOL      0.658347
     44 O7          3.5590   -1.2940   -1.9350 o         1 MOL     -0.676059
     45 O8          2.2750   -1.1230   -3.7040 o         1 MOL     -0.676059
     46 H19         3.0430   -3.4530   -0.3560 hn        1 MOL      0.192897
     47 H20         4.3170   -5.0980   -2.5550 h1        1 MOL      0.076405
     48 H21         2.7380   -3.8000   -3.7700 hc        1 MOL      0.032308
     49 H22         4.3290   -3.1970   -4.1330 hc        1 MOL      0.032308
     50 N4          5.7900   -3.1450   -0.4660 n         1 MOL     -0.380364
     51 C17         7.1680   -2.6610    0.0080 c3        1 MOL      0.066030
     52 C18         7.5890   -1.3400   -0.7010 c         1 MOL      0.359051
     53 O9          8.7600   -1.1180   -0.8380 o         1 MOL     -0.578336
     54 H23         5.0530   -3.2220    0.2240 hn        1 MOL      0.239642
     55 H24         7.9200   -3.4350   -0.1410 h1        1 MOL      0.063809
     56 H25         7.2580   -2.5150    1.0900 h1        1 MOL      0.063809
     57 N5          6.6920   -0.4750   -1.2530 n         1 MOL      0.042043
     58 C19         7.0670    0.7470   -2.0340 c3        1 MOL     -0.027427
     59 C20         7.3570    2.0860   -1.2270 c         1 MOL      0.327854
     60 O10         7.8320    3.0930   -1.7260 o         1 MOL     -0.516785
     61 C21         5.9470    1.1390   -2.9780 c3        1 MOL     -0.344402
     62 C22         4.6850    1.5910   -2.2650 c         1 MOL      0.917108
     63 O11         4.5550    1.3140   -1.0110 o         1 MOL     -0.726557
     64 O12         3.7740    2.0900   -2.9270 o         1 MOL     -0.726557
     65 H26         5.7050   -0.7010   -1.2020 hn        1 MOL     -0.022507
     66 H27         7.9410    0.6220   -2.6770 h1        1 MOL      0.111484
     67 H28         5.7750    0.2430   -3.5670 hc        1 MOL      0.096606
     68 H29         6.2190    1.9800   -3.6220 hc        1 MOL      0.096606
     69 N6          7.0830    2.0980    0.0740 n         1 MOL     -0.146989
     70 C23         7.1850    3.1730    1.0320 c3        1 MOL     -0.141618
     71 C24         5.9520    4.1300    1.1530 c         1 MOL      0.535797
     72 O13         6.0900    5.2220    1.6380 o         1 MOL     -0.559526
     73 H30         6.6240    1.2390    0.3580 hn        1 MOL      0.139827
     74 H31         8.0620    3.7450    0.7270 h1        1 MOL      0.085288
     75 H32         7.4430    2.7550    2.0090 h1        1 MOL      0.085288
     76 N7          4.7170    3.7320    0.6440 n         1 MOL     -0.251940
     77 C25         3.4680    4.4900    0.8500 c3        1 MOL     -0.231318
     78 C26         2.2570    3.5950    1.1070 c         1 MOL      0.615297
     79 O14         2.1910    2.4990    0.5320 o         1 MOL     -0.611726
     80 C27         3.0980    5.3730   -0.3880 c3        1 MOL     -0.033441
     81 C28         4.1870    6.4420   -0.6780 c3        1 MOL     -0.389901
     82 C29         3.7120    7.3940   -1.7580 c         1 MOL      0.694170
     83 N8          3.5500    6.8500   -2.9610 n         1 MOL     -0.797092
     84 O15         3.6330    8.5860   -1.5820 o         1 MOL     -0.590391
     85 H33         4.6590    2.9110    0.0460 hn        1 MOL      0.187753
     86 H34         3.4870    5.1380    1.7280 h1        1 MOL      0.112967
     87 H35         2.1060    5.8120   -0.3330 hc        1 MOL      0.084603
     88 H36         2.9680    4.7020   -1.2400 hc        1 MOL      0.084603
     89 H37         5.1230    6.0420   -1.0570 hc        1 MOL      0.148012
     90 H38         4.4380    6.9590    0.2520 hc        1 MOL      0.148012
     91 H39         3.9260    5.9180   -3.0980 hn        1 MOL      0.357450
     92 H40         3.4370    7.4760   -3.7430 hn        1 MOL      0.357450
     93 N9          1.2710    4.0810    1.8910 n         1 MOL     -0.455276
     94 C30         0.0560    3.2870    2.0780 c3        1 MOL     -0.036404
     95 C31        -0.9910    3.4490    0.9960 c         1 MOL      0.500119
     96 O16        -1.5660    4.5270    0.8250 o         1 MOL     -0.616927
     97 C32        -0.6980    3.4360    3.4500 c3        1 MOL      0.236235
     98 C33        -1.6220    2.2210    3.6210 c3        1 MOL     -0.233197
     99 C34         0.3020    3.4490    4.6460 c3        1 MOL     -0.233197
    100 H41         1.4560    4.9420    2.3790 hn        1 MOL      0.288808
    101 H42         0.2760    2.2270    2.1820 h1        1 MOL      0.203236
    102 H43        -1.3500    4.3130    3.5440 hc        1 MOL     -0.032939
    103 H44        -2.4770    2.3140    2.9500 hc        1 MOL      0.042225
    104 H45        -1.0480    1.3010    3.4680 hc        1 MOL      0.042225
    105 H46        -2.2450    2.2350    4.5110 hc        1 MOL      0.042225
    106 H47         1.0850    4.1920    4.5190 hc        1 MOL      0.042225
    107 H48        -0.2950    3.5170    5.5560 hc        1 MOL      0.042225
    108 H49         0.8300    2.4990    4.6780 hc        1 MOL      0.042225
    109 N10        -1.2790    2.3980    0.2420 n         1 MOL     -0.183432
    110 C35        -2.3080    2.3170   -0.7690 c3        1 MOL      0.174710
    111 C36        -3.6940    1.9530   -0.1590 c         1 MOL      0.185970
    112 O17        -3.7850    1.3750    0.9670 o         1 MOL     -0.252610
    113 C37        -1.8060    1.4570   -1.9430 c3        1 MOL      0.092707
    114 C38        -2.6930    1.6060   -3.2210 c         1 MOL      0.627469
    115 N11        -2.9930    2.8180   -3.5680 n         1 MOL     -0.722857
    116 O18        -3.1960    0.6290   -3.6650 o         1 MOL     -0.549556
    117 H50        -0.8530    1.5350    0.5360 hn        1 MOL      0.030029
    118 H51        -2.4020    3.3350   -1.1470 h1        1 MOL      0.006913
    119 H52        -1.8550    0.4200   -1.6140 hc        1 MOL     -0.024422
    120 H53        -0.7900    1.7300   -2.2230 hc        1 MOL     -0.024422
    121 H54        -2.5030    3.6420   -3.2420 hn        1 MOL      0.330546
    122 H55        -3.5590    2.8580   -4.3990 hn        1 MOL      0.330546
    123 N12        -4.7870    2.3600   -0.7980 n         1 MOL     -0.311466
    124 C39        -6.2260    2.0200   -0.4010 c3        1 MOL      0.049973
    125 C40        -6.4800    0.5230   -0.4580 c         1 MOL      0.669772
    126 O19        -7.3530   -0.0470    0.1670 o         1 MOL     -0.528457
    127 C41        -7.2050    2.6050   -1.4100 c3        1 MOL     -0.103240
    128 C42        -8.7160    2.4760   -1.1170 ca        1 MOL      0.058280
    129 C43        -9.3030    3.2220   -0.0900 ca        1 MOL     -0.234956
    130 C44        -9.5070    1.6270   -1.9210 ca        1 MOL     -0.234956
    131 C45       -10.6640    3.1330    0.2130 ca        1 MOL     -0.146758
    132 C46       -10.9050    1.5300   -1.6210 ca        1 MOL     -0.146758
    133 C47       -11.5080    2.3370   -0.6140 ca        1 MOL      0.240056
    134 O20       -12.8600    2.3760   -0.4850 oh        1 MOL     -0.508658
    135 H56        -4.5770    2.8440   -1.6540 hn        1 MOL      0.194475
    136 H57        -6.4590    2.4080    0.5910 h1        1 MOL      0.068310
    137 H58        -6.9240    2.2190   -2.3930 hc        1 MOL      0.051034
    138 H59        -7.1340    3.6910   -1.4590 hc        1 MOL      0.051034
    139 H60        -8.6560    3.9620    0.3540 ha        1 MOL      0.158762
    140 H61        -9.0530    1.0660   -2.7280 ha        1 MOL      0.158762
    141 H62       -11.1730    3.6950    0.9810 ha        1 MOL      0.116720
    142 H63       -11.5250    0.9340   -2.2720 ha        1 MOL      0.116720
    143 H64       -13.2800    1.8220   -1.1500 ho        1 MOL      0.375922
    144 N13        -5.5880   -0.2270   -1.1870 n         1 MOL     -0.482304
    145 C48        -5.4330   -1.7530   -1.1300 c3        1 MOL     -0.031536
    146 C49        -4.8740   -2.3240    0.1700 c         1 MOL      0.465769
    147 O21        -5.1350   -3.4730    0.4860 o         1 MOL     -0.520479
    148 C50        -4.4650   -2.0310   -2.3210 c3        1 MOL      0.226413
    149 C51        -4.5890   -3.4580   -2.8990 c3        1 MOL     -0.350701
    150 C52        -5.9140   -3.7130   -3.5250 c         1 MOL      0.765880
    151 O22        -6.8740   -4.0580   -2.8420 o         1 MOL     -0.761066
    152 O23        -6.0050   -3.4920   -4.7410 o         1 MOL     -0.761066
    153 H65        -5.0480    0.3090   -1.8490 hn        1 MOL      0.230700
    154 H66        -6.3870   -2.2530   -1.3360 h1        1 MOL      0.134724
    155 H67        -3.4470   -2.0080   -1.9260 hc        1 MOL      0.001627
    156 H68        -4.6650   -1.3280   -3.1240 hc        1 MOL      0.001627
    157 H69        -4.5310   -4.1710   -2.0830 hc        1 MOL      0.054075
    158 H70        -3.7310   -3.6200   -3.5520 hc        1 MOL      0.054075
    159 N14        -4.2960   -1.4910    1.0240 n         1 MOL     -0.285752
    160 C53        -3.5340   -1.7740    2.2350 c3        1 MOL     -0.050229
    161 C54        -4.1310   -1.0380    3.4290 c         1 MOL      0.467543
    162 O24        -3.9850   -1.4920    4.5640 o         1 MOL     -0.588705
    163 C55        -2.0500   -1.3800    2.0400 c3        1 MOL      0.037978
    164 C56        -1.3610   -1.8630    0.8740 c3        1 MOL      0.140452
    165 C57        -0.1050   -1.0920    0.5500 c         1 MOL      0.733293
    166 O25         0.7780   -1.6900   -0.1380 o         1 MOL     -0.713453
    167 O26         0.0960    0.1190    0.9090 o         1 MOL     -0.713453
    168 H71        -4.2230   -0.5190    0.7860 hn        1 MOL      0.089096
    169 H72        -3.4440   -2.8500    2.4420 h1        1 MOL      0.085663
    170 H73        -1.4910   -1.6430    2.9400 hc        1 MOL      0.004879
    171 H74        -2.0440   -0.2930    2.1110 hc        1 MOL      0.004879
    172 H75        -1.9190   -1.8030   -0.0700 hc        1 MOL     -0.028527
    173 H76        -1.0780   -2.8950    1.0800 hc        1 MOL     -0.028527
    174 N15        -4.8700    0.0270    3.2450 n         1 MOL     -0.058321
    175 C58        -5.7050    0.6970    4.2400 c3        1 MOL     -0.083410
    176 H77        -6.7450    0.4020    4.0990 h1        1 MOL      0.047831
    177 H78        -5.3790    0.4110    5.2400 h1        1 MOL      0.047831
    178 H79        -5.6150    1.7770    4.1240 h1        1 MOL      0.047831
    179 H80        -4.8890    0.4500    2.3240 hn        1 MOL      0.037586
    180 Ca1         2.6230    0.0360    0.0000 Ca        1 MOL      1.743809
    181 O27         2.7300    0.5920    2.6480 oh        1 MOL     -0.878886
    182 H81         2.0760    0.1650    3.1950 ho        1 MOL      0.426830
    183 H82         3.4710    0.7370    3.2290 ho        1 MOL      0.426830
    184 O28         1.5830    0.9610   -2.3540 oh        1 MOL     -0.878886
    185 H83         1.8220    0.1860   -2.8630 ho        1 MOL      0.426830
    186 H84         2.2420    1.6150   -2.5650 ho        1 MOL      0.426830
@<TRIPOS>BOND
     1    1    2 1   
     2    1    4 1   
     3    1    5 1   
     4    1    6 1   
     5    2    3 2   
     6    2    7 1   
     7    7    8 1   
     8    7   15 1   
     9    8    9 1   
    10    8   11 1   
    11    8   16 1   
    12    9   10 2   
    13    9   19 1   
    14   11   12 1   
    15   11   17 1   
    16   11   18 1   
    17   12   13 1   
    18   12   14 1   
    19   19   20 1   
    20   19   27 1   
    21   20   21 1   
    22   20   23 1   
    23   20   28 1   
    24   21   22 2   
    25   21   38 1   
    26   23   24 1   
    27   23   25 1   
    28   23   29 1   
    29   24   26 1   
    30   24   30 1   
    31   24   31 1   
    32   25   32 1   
    33   25   33 1   
    34   25   34 1   
    35   26   35 1   
    36   26   36 1   
    37   26   37 1   
    38   38   39 1   
    39   38   46 1   
    40   39   40 1   
    41   39   42 1   
    42   39   47 1   
    43   40   41 2   
    44   40   50 1   
    45   42   43 1   
    46   42   48 1   
    47   42   49 1   
    48   43   44 1   
    49   43   45 1   
    50   50   51 1   
    51   50   54 1   
    52   51   52 1   
    53   51   55 1   
    54   51   56 1   
    55   52   53 2   
    56   52   57 1   
    57   57   58 1   
    58   57   65 1   
    59   58   59 1   
    60   58   61 1   
    61   58   66 1   
    62   59   60 2   
    63   59   69 1   
    64   61   62 1   
    65   61   67 1   
    66   61   68 1   
    67   62   63 1   
    68   62   64 1   
    69   69   70 1   
    70   69   73 1   
    71   70   71 1   
    72   70   74 1   
    73   70   75 1   
    74   71   72 2   
    75   71   76 1   
    76   76   77 1   
    77   76   85 1   
    78   77   78 1   
    79   77   80 1   
    80   77   86 1   
    81   78   79 2   
    82   78   93 1   
    83   80   81 1   
    84   80   87 1   
    85   80   88 1   
    86   81   82 1   
    87   81   89 1   
    88   81   90 1   
    89   82   83 1   
    90   82   84 2   
    91   83   91 1   
    92   83   92 1   
    93   93   94 1   
    94   93  100 1   
    95   94   95 1   
    96   94   97 1   
    97   94  101 1   
    98   95   96 2   
    99   95  109 1   
   100   97   98 1   
   101   97   99 1   
   102   97  102 1   
   103   98  103 1   
   104   98  104 1   
   105   98  105 1   
   106   99  106 1   
   107   99  107 1   
   108   99  108 1   
   109  109  110 1   
   110  109  117 1   
   111  110  111 1   
   112  110  113 1   
   113  110  118 1   
   114  111  112 2   
   115  111  123 1   
   116  113  114 1   
   117  113  119 1   
   118  113  120 1   
   119  114  115 1   
   120  114  116 2   
   121  115  121 1   
   122  115  122 1   
   123  123  124 1   
   124  123  135 1   
   125  124  125 1   
   126  124  127 1   
   127  124  136 1   
   128  125  126 2   
   129  125  144 1   
   130  127  128 1   
   131  127  137 1   
   132  127  138 1   
   133  128  129 ar  
   134  128  130 ar  
   135  129  131 ar  
   136  129  139 1   
   137  130  132 ar  
   138  130  140 1   
   139  131  133 ar  
   140  131  141 1   
   141  132  133 ar  
   142  132  142 1   
   143  133  134 1   
   144  134  143 1   
   145  144  145 1   
   146  144  153 1   
   147  145  146 1   
   148  145  148 1   
   149  145  154 1   
   150  146  147 2   
   151  146  159 1   
   152  148  149 1   
   153  148  155 1   
   154  148  156 1   
   155  149  150 1   
   156  149  157 1   
   157  149  158 1   
   158  150  151 1   
   159  150  152 1   
   160  159  160 1   
   161  159  168 1   
   162  160  161 1   
   163  160  163 1   
   164  160  169 1   
   165  161  162 2   
   166  161  174 1   
   167  163  164 1   
   168  163  170 1   
   169  163  171 1   
   170  164  165 1   
   171  164  172 1   
   172  164  173 1   
   173  165  166 1   
   174  165  167 1   
   175  174  175 1   
   176  174  179 1   
   177  175  176 1   
   178  175  177 1   
   179  175  178 1   
   180  181  182 1   
   181  181  183 1   
   182  184  185 1   
   183  184  186 1   
@<TRIPOS>SUBSTRUCTURE
     1 MOL         1 TEMP              0 ****  ****    0 ROOT
