@<TRIPOS>MOLECULE
MOL
  175   173     1     0     0
SMALL
resp


@<TRIPOS>ATOM
      1 C1          0.3160    4.4890    4.8950 c3        1 MOL     -0.364552
      2 C2         -0.3630    4.3080    3.5720 c         1 MOL      0.780897
      3 O1          0.0840    4.8550    2.5750 o         1 MOL     -0.573713
      4 H1         -0.4330    4.6710    5.6660 hc        1 MOL      0.081680
      5 H2          0.8790    3.5890    5.1420 hc        1 MOL      0.081680
      6 H3          0.9960    5.3400    4.8410 hc        1 MOL      0.081680
      7 N1         -1.5490    3.6790    3.5630 n         1 MOL     -0.641656
      8 C3         -2.2980    3.4160    2.3390 c3        1 MOL      0.092157
      9 C4         -2.6760    4.6290    1.5320 c         1 MOL      0.688431
     10 O2         -3.0630    5.6470    2.1180 o         1 MOL     -0.587205
     11 C5         -3.6410    2.8440    2.7620 c3        1 MOL     -0.364942
     12 C6         -4.4660    2.2970    1.5920 c         1 MOL      0.655009
     13 O3         -5.7470    2.3000    1.6710 o         1 MOL     -0.631136
     14 O4         -3.7940    1.9250    0.5360 o         1 MOL     -0.631136
     15 H4         -1.9510    3.5270    4.4820 hn        1 MOL      0.326580
     16 H5         -1.7600    2.6920    1.7230 h1        1 MOL      0.017335
     17 H6         -4.2400    3.5900    3.2870 hc        1 MOL      0.089150
     18 H7         -3.4810    1.9700    3.4000 hc        1 MOL      0.089150
     19 N2         -2.6880    4.5190    0.1580 n         1 MOL     -0.423356
     20 C7         -3.2900    5.4710   -0.7580 c3        1 MOL      0.106475
     21 C8         -4.3640    4.7790   -1.7080 c         1 MOL      0.657595
     22 O5         -4.9410    5.5180   -2.5060 o         1 MOL     -0.617717
     23 C9         -2.1450    6.1580   -1.5750 c3        1 MOL     -0.218832
     24 H8         -2.2400    3.6910   -0.1920 hn        1 MOL      0.246709
     25 H9         -3.8170    6.2210   -0.1650 h1        1 MOL      0.047260
     26 H10        -2.5420    6.8630   -2.3030 hc        1 MOL      0.057650
     27 H11        -1.4250    6.6890   -0.9410 hc        1 MOL      0.057650
     28 H12        -1.5880    5.5340   -2.2680 hc        1 MOL      0.057650
     29 N3         -4.8520    3.5180   -1.5900 n         1 MOL     -0.543498
     30 C10        -5.5560    2.8490   -2.7280 c3        1 MOL      0.062475
     31 C11        -6.6940    1.9540   -2.2890 c         1 MOL      0.399926
     32 O6         -7.4270    1.5910   -3.1640 o         1 MOL     -0.568202
     33 C12        -4.5270    2.0990   -3.4810 c3        1 MOL     -0.170649
     34 C13        -3.6270    1.1910   -2.6770 c         1 MOL      0.754297
     35 O7         -4.0820    0.3020   -1.9320 o         1 MOL     -0.724162
     36 O8         -2.4090    1.2210   -2.8050 o         1 MOL     -0.724162
     37 H13        -4.5030    3.0710   -0.7500 hn        1 MOL      0.232004
     38 H14        -5.8650    3.6010   -3.4490 h1        1 MOL      0.120399
     39 H15        -3.8820    2.8640   -3.9060 hc        1 MOL      0.048771
     40 H16        -4.9290    1.5930   -4.3590 hc        1 MOL      0.048771
     41 N4         -6.8360    1.5010   -1.0730 n         1 MOL     -0.086486
     42 C14        -7.9120    0.5950   -0.7720 c3        1 MOL     -0.335207
     43 C15        -7.7230   -0.7840   -1.2840 c         1 MOL      0.546451
     44 O9         -8.5470   -1.6700   -0.9930 o         1 MOL     -0.589980
     45 H17        -6.0860    1.6590   -0.4130 hn        1 MOL      0.158006
     46 H18        -8.8930    0.9040   -1.1600 h1        1 MOL      0.140814
     47 H19        -7.9560    0.5770    0.3070 h1        1 MOL      0.140814
     48 N5         -6.5670   -1.1710   -1.8710 n         1 MOL     -0.238786
     49 C16        -6.1810   -2.5090   -2.1810 c3        1 MOL     -0.077440
     50 C17        -6.1800   -3.4550   -0.9380 c         1 MOL      0.562695
     51 O10        -6.6410   -4.6000   -1.0290 o         1 MOL     -0.615432
     52 C18        -4.9710   -2.6120   -3.0990 c3        1 MOL     -0.136658
     53 C19        -3.6030   -2.3350   -2.4290 c         1 MOL      0.487542
     54 N6         -2.5370   -2.3050   -3.1800 n         1 MOL     -0.582582
     55 O11        -3.5540   -2.1690   -1.2310 o         1 MOL     -0.491390
     56 H20        -5.8130   -0.4960   -1.8090 hn        1 MOL      0.221578
     57 H21        -6.9740   -2.9530   -2.7720 h1        1 MOL      0.084064
     58 H22        -5.0740   -1.8990   -3.9130 hc        1 MOL      0.052134
     59 H23        -4.7970   -3.5480   -3.6370 hc        1 MOL      0.052134
     60 H24        -2.8090   -2.5100   -4.1390 hn        1 MOL      0.304059
     61 H25        -1.6320   -1.9720   -2.8770 hn        1 MOL      0.304059
     62 N7         -5.7520   -2.9870    0.1940 n         1 MOL     -0.182010
     63 C20        -5.7770   -3.8090    1.4790 c3        1 MOL     -0.222081
     64 C21        -4.4520   -4.4090    1.9410 c         1 MOL      0.501721
     65 O12        -4.4470   -4.9760    3.0470 o         1 MOL     -0.595426
     66 H26        -5.2550   -2.1060    0.2090 hn        1 MOL      0.197287
     67 H27        -6.4630   -4.6390    1.3830 h1        1 MOL      0.122186
     68 H28        -6.2720   -3.1810    2.2300 h1        1 MOL      0.122186
     69 N8         -3.3930   -4.3030    1.2350 n         1 MOL     -0.187429
     70 C22        -2.0120   -4.6050    1.6420 c3        1 MOL     -0.050402
     71 C23        -1.1270   -3.3790    1.5790 c         1 MOL      0.701838
     72 O13        -1.3470   -2.3760    0.8630 o         1 MOL     -0.610488
     73 C24        -1.4800   -5.7950    0.8090 c3        1 MOL      0.494966
     74 C25        -2.3420   -7.0760    0.8710 c3        1 MOL     -0.435900
     75 O14        -1.4720   -5.5530   -0.5330 oh        1 MOL     -0.641710
     76 H29        -3.5100   -3.7180    0.4220 hn        1 MOL      0.123553
     77 H30        -2.0430   -5.0870    2.6180 h1        1 MOL      0.033477
     78 H31        -0.4790   -6.0350    1.1620 h1        1 MOL     -0.011350
     79 H32        -2.3480   -5.8360   -0.8370 ho        1 MOL      0.389963
     80 H33        -3.2950   -6.9890    0.3610 hc        1 MOL      0.101233
     81 H34        -1.7000   -7.8580    0.4570 hc        1 MOL      0.101233
     82 H35        -2.4140   -7.4140    1.9030 hc        1 MOL      0.101233
     83 N9         -0.0120   -3.3920    2.3880 n         1 MOL     -0.655507
     84 C26         1.1160   -2.4620    2.2060 c3        1 MOL      0.126402
     85 C27         1.9790   -2.8530    1.0730 c         1 MOL      0.576787
     86 O15         2.6300   -3.9280    1.0870 o         1 MOL     -0.607496
     87 C28         1.8840   -2.3100    3.5390 c3        1 MOL     -0.010246
     88 C29         1.1390   -1.3310    4.4650 c3        1 MOL      0.077821
     89 C30         3.3950   -1.8840    3.5230 c3        1 MOL     -0.096901
     90 C31         1.7130   -1.1130    5.8670 c3        1 MOL     -0.009764
     91 H36         0.1630   -4.2180    2.9560 hn        1 MOL      0.305184
     92 H37         0.8190   -1.4540    1.9330 h1        1 MOL      0.057029
     93 H38         1.9390   -3.2880    4.0360 hc        1 MOL      0.017840
     94 H39         0.1100   -1.6270    4.6330 hc        1 MOL     -0.030641
     95 H40         1.1570   -0.3810    3.9230 hc        1 MOL     -0.030641
     96 H41         3.6070   -0.8240    3.3990 hc        1 MOL      0.019820
     97 H42         3.9330   -2.1910    4.4230 hc        1 MOL      0.019820
     98 H43         3.8900   -2.4890    2.7610 hc        1 MOL      0.019820
     99 H44         1.1300   -0.3810    6.4270 hc        1 MOL     -0.005900
    100 H45         1.5780   -2.0050    6.4680 hc        1 MOL     -0.005900
    101 H46         2.7660   -0.8440    5.9940 hc        1 MOL     -0.005900
    102 N10         2.0700   -1.8960    0.1430 n         1 MOL     -0.169729
    103 C32         2.8970   -1.9720   -1.0600 c3        1 MOL      0.003763
    104 C33         4.2970   -1.4820   -0.7440 c         1 MOL      0.365713
    105 O16         4.6190   -0.9390    0.2780 o         1 MOL     -0.278507
    106 C34         2.3030   -1.0170   -2.1290 c3        1 MOL     -0.245039
    107 C35         0.7960   -1.0290   -2.3360 c         1 MOL      0.710985
    108 O17         0.0440   -0.3780   -1.5610 o         1 MOL     -0.656448
    109 O18         0.3220   -1.7500   -3.2500 o         1 MOL     -0.656448
    110 H47         1.4800   -1.0760    0.2630 hn        1 MOL      0.041362
    111 H48         2.9900   -2.9760   -1.4890 h1        1 MOL      0.083957
    112 H49         2.6950   -1.2070   -3.1240 hc        1 MOL      0.073694
    113 H50         2.5290   -0.0040   -1.8020 hc        1 MOL      0.073694
    114 N11         5.1880   -1.8810   -1.7000 n         1 MOL     -0.581199
    115 C36         6.5590   -1.5520   -1.4700 c3        1 MOL      0.340005
    116 C37         6.8800   -0.0690   -1.1550 c         1 MOL      0.328777
    117 O19         7.5510    0.2990   -0.1930 o         1 MOL     -0.440467
    118 C38         7.4680   -2.1510   -2.5680 c3        1 MOL     -0.237521
    119 C39         8.9160   -1.7790   -2.3190 ca        1 MOL      0.117968
    120 C40         9.5880   -2.2670   -1.1180 ca        1 MOL     -0.256844
    121 C41         9.5760   -0.7920   -3.0900 ca        1 MOL     -0.256844
    122 C42        10.8470   -1.7080   -0.8020 ca        1 MOL     -0.019608
    123 C43        10.8880   -0.3850   -2.7900 ca        1 MOL     -0.019608
    124 C44        11.5660   -0.8750   -1.6390 ca        1 MOL     -0.186223
    125 H51         4.7960   -2.5450   -2.3540 hn        1 MOL      0.330510
    126 H52         6.8030   -2.1110   -0.5650 h1        1 MOL      0.043172
    127 H53         7.1240   -1.8650   -3.5590 hc        1 MOL      0.081753
    128 H54         7.3860   -3.2300   -2.4260 hc        1 MOL      0.081753
    129 H55         9.0720   -2.9810   -0.4940 ha        1 MOL      0.145464
    130 H56         9.1230   -0.4280   -4.0000 ha        1 MOL      0.145464
    131 H57        11.3530   -2.0060    0.1110 ha        1 MOL      0.087905
    132 H58        11.4280    0.3080   -3.4200 ha        1 MOL      0.087905
    133 H59        12.5670   -0.6180   -1.3310 ha        1 MOL      0.124983
    134 N12         6.4390    0.8910   -2.0560 n         1 MOL     -0.026631
    135 C45         6.4880    2.3350   -1.6660 c3        1 MOL      0.085041
    136 C46         5.9490    2.6800   -0.2450 c         1 MOL      0.265658
    137 O20         6.3890    3.6080    0.3950 o         1 MOL     -0.470432
    138 C47         5.7230    3.0130   -2.8080 c3        1 MOL     -0.135500
    139 C48         6.0990    2.1520   -4.0290 c3        1 MOL      0.132618
    140 C49         6.0240    0.7650   -3.3830 c3        1 MOL     -0.070454
    141 H60         7.5400    2.6270   -1.6310 h1        1 MOL      0.032567
    142 H61         4.6420    2.9690   -2.6600 hc        1 MOL      0.056282
    143 H62         6.0610    4.0240   -3.0120 hc        1 MOL      0.056282
    144 H63         5.5080    2.3180   -4.9270 hc        1 MOL     -0.014462
    145 H64         7.1430    2.3030   -4.3190 hc        1 MOL     -0.014462
    146 H65         5.0020    0.4040   -3.3940 h1        1 MOL      0.011541
    147 H66         6.6800    0.1090   -3.9520 h1        1 MOL      0.011541
    148 N13         4.8700    1.9660    0.2240 n         1 MOL     -0.119721
    149 C50         4.2020    2.2480    1.4860 c3        1 MOL     -0.070383
    150 C51         4.9710    1.6490    2.6600 c         1 MOL      0.442053
    151 O21         5.0810    2.2830    3.6770 o         1 MOL     -0.567662
    152 C52         2.7760    1.6480    1.4300 c3        1 MOL     -0.000631
    153 C53         1.8190    2.5430    0.6660 c3        1 MOL     -0.193108
    154 C54         0.4430    1.9010    0.5410 c         1 MOL      0.793057
    155 O22         0.1050    0.8680    1.1890 o         1 MOL     -0.733710
    156 O23        -0.4050    2.3630   -0.2130 o         1 MOL     -0.733710
    157 H67         4.6570    1.1460   -0.3120 hn        1 MOL      0.125586
    158 H68         4.2530    3.3100    1.7280 h1        1 MOL      0.118785
    159 H69         2.4120    1.5650    2.4510 hc        1 MOL      0.039257
    160 H70         2.8650    0.6510    1.0060 hc        1 MOL      0.039257
    161 H71         2.1840    2.6260   -0.3540 hc        1 MOL      0.056695
    162 H72         1.7020    3.5160    1.1540 hc        1 MOL      0.056695
    163 N14         5.7150    0.5610    2.4120 n         1 MOL      0.023630
    164 C55         6.6550    0.0140    3.4130 c3        1 MOL     -0.175015
    165 H73         7.5220   -0.4070    2.9040 h1        1 MOL      0.064562
    166 H74         6.9790    0.8120    4.0820 h1        1 MOL      0.064562
    167 H75         6.1590   -0.7660    3.9900 h1        1 MOL      0.064562
    168 H76         5.6060    0.0630    1.5430 hn        1 MOL     -0.015177
    169 Ca1        -2.0890    0.0950   -0.2700 Ca        1 MOL      1.726485
    170 O24        -4.1740   -0.8990    1.4870 oh        1 MOL     -0.795943
    171 H77        -3.6040   -0.5550    2.1640 ho        1 MOL      0.397331
    172 H78        -5.0370   -0.5490    1.6930 ho        1 MOL      0.397331
    173 O25        -1.9320    0.1020    2.8420 oh        1 MOL     -0.795943
    174 H79        -1.0120    0.1040    2.5890 ho        1 MOL      0.397331
    175 H80        -1.9430    0.4270    3.7450 ho        1 MOL      0.397331
@<TRIPOS>BOND
     1    1    2 1   
     2    1    4 1   
     3    1    5 1   
     4    1    6 1   
     5    2    3 2   
     6    2    7 1   
     7    7    8 1   
     8    7   15 1   
     9    8    9 1   
    10    8   11 1   
    11    8   16 1   
    12    9   10 2   
    13    9   19 1   
    14   11   12 1   
    15   11   17 1   
    16   11   18 1   
    17   12   13 1   
    18   12   14 1   
    19   19   20 1   
    20   19   24 1   
    21   20   21 1   
    22   20   23 1   
    23   20   25 1   
    24   21   22 2   
    25   21   29 1   
    26   23   26 1   
    27   23   27 1   
    28   23   28 1   
    29   29   30 1   
    30   29   37 1   
    31   30   31 1   
    32   30   33 1   
    33   30   38 1   
    34   31   32 2   
    35   31   41 1   
    36   33   34 1   
    37   33   39 1   
    38   33   40 1   
    39   34   35 1   
    40   34   36 1   
    41   41   42 1   
    42   41   45 1   
    43   42   43 1   
    44   42   46 1   
    45   42   47 1   
    46   43   44 2   
    47   43   48 1   
    48   48   49 1   
    49   48   56 1   
    50   49   50 1   
    51   49   52 1   
    52   49   57 1   
    53   50   51 2   
    54   50   62 1   
    55   52   53 1   
    56   52   58 1   
    57   52   59 1   
    58   53   54 1   
    59   53   55 2   
    60   54   60 1   
    61   54   61 1   
    62   62   63 1   
    63   62   66 1   
    64   63   64 1   
    65   63   67 1   
    66   63   68 1   
    67   64   65 2   
    68   64   69 1   
    69   69   70 1   
    70   69   76 1   
    71   70   71 1   
    72   70   73 1   
    73   70   77 1   
    74   71   72 2   
    75   71   83 1   
    76   73   74 1   
    77   73   75 1   
    78   73   78 1   
    79   74   80 1   
    80   74   81 1   
    81   74   82 1   
    82   75   79 1   
    83   83   84 1   
    84   83   91 1   
    85   84   85 1   
    86   84   87 1   
    87   84   92 1   
    88   85   86 2   
    89   85  102 1   
    90   87   88 1   
    91   87   89 1   
    92   87   93 1   
    93   88   90 1   
    94   88   94 1   
    95   88   95 1   
    96   89   96 1   
    97   89   97 1   
    98   89   98 1   
    99   90   99 1   
   100   90  100 1   
   101   90  101 1   
   102  102  103 1   
   103  102  110 1   
   104  103  104 1   
   105  103  106 1   
   106  103  111 1   
   107  104  105 2   
   108  104  114 1   
   109  106  107 1   
   110  106  112 1   
   111  106  113 1   
   112  107  108 1   
   113  107  109 1   
   114  114  115 1   
   115  114  125 1   
   116  115  116 1   
   117  115  118 1   
   118  115  126 1   
   119  116  117 2   
   120  116  134 1   
   121  118  119 1   
   122  118  127 1   
   123  118  128 1   
   124  119  120 ar  
   125  119  121 ar  
   126  120  122 ar  
   127  120  129 1   
   128  121  123 ar  
   129  121  130 1   
   130  122  124 ar  
   131  122  131 1   
   132  123  124 ar  
   133  123  132 1   
   134  124  133 1   
   135  134  135 1   
   136  134  140 1   
   137  135  136 1   
   138  135  138 1   
   139  135  141 1   
   140  136  137 2   
   141  136  148 1   
   142  138  139 1   
   143  138  142 1   
   144  138  143 1   
   145  139  140 1   
   146  139  144 1   
   147  139  145 1   
   148  140  146 1   
   149  140  147 1   
   150  148  149 1   
   151  148  157 1   
   152  149  150 1   
   153  149  152 1   
   154  149  158 1   
   155  150  151 2   
   156  150  163 1   
   157  152  153 1   
   158  152  159 1   
   159  152  160 1   
   160  153  154 1   
   161  153  161 1   
   162  153  162 1   
   163  154  155 1   
   164  154  156 1   
   165  163  164 1   
   166  163  168 1   
   167  164  165 1   
   168  164  166 1   
   169  164  167 1   
   170  170  171 1   
   171  170  172 1   
   172  173  174 1   
   173  173  175 1   
@<TRIPOS>SUBSTRUCTURE
     1 MOL         1 TEMP              0 ****  ****    0 ROOT
