@<TRIPOS>MOLECULE
MOL
  179   176     1     0     0
SMALL
resp


@<TRIPOS>ATOM
      1 C1          2.6670    2.2700    5.2790 c3        1 MOL     -0.429179
      2 C2          2.1340    2.2110    3.8900 c         1 MOL      0.693439
      3 O1          2.9300    2.2390    2.9560 o         1 MOL     -0.548697
      4 H1          3.6250    1.7500    5.3220 hc        1 MOL      0.112871
      5 H2          2.8060    3.3110    5.5720 hc        1 MOL      0.112871
      6 H3          1.9640    1.7910    5.9600 hc        1 MOL      0.112871
      7 N1          0.7790    2.1740    3.6660 n         1 MOL     -0.573424
      8 C3          0.1790    2.1770    2.3720 c3        1 MOL      0.071245
      9 C4          0.2520    3.5320    1.6990 c         1 MOL      0.394292
     10 O2         -0.4140    4.4770    2.1190 o         1 MOL     -0.542412
     11 C5         -1.2540    1.7740    2.7310 c3        1 MOL     -0.086222
     12 C6         -2.2170    1.7590    1.5400 c         1 MOL      0.670330
     13 O3         -3.4630    1.6730    1.7850 o         1 MOL     -0.681249
     14 O4         -1.7320    1.7770    0.3800 o         1 MOL     -0.681249
     15 H4          0.2690    1.9210    4.4990 hn        1 MOL      0.314196
     16 H5          0.5730    1.4320    1.6820 h1        1 MOL      0.030246
     17 H6         -1.6980    2.4840    3.4240 hc        1 MOL      0.050310
     18 H7         -1.2000    0.7940    3.2200 hc        1 MOL      0.050310
     19 N2          1.0620    3.6020    0.7040 n         1 MOL      0.026869
     20 C7          1.5470    4.7930    0.0130 c3        1 MOL     -0.111631
     21 C8          0.6050    5.3720   -1.0200 c         1 MOL      0.524889
     22 O5          0.7280    6.5830   -1.2230 o         1 MOL     -0.556055
     23 C9          2.9850    4.6460   -0.5230 c3        1 MOL     -0.339500
     24 C10         3.9900    4.1990    0.5050 c3        1 MOL      0.016153
     25 C11         4.1460    5.2370    1.6060 c3        1 MOL      0.020102
     26 C12         5.0560    4.8240    2.6790 c3        1 MOL      0.108519
     27 N3          5.0200    5.8370    3.7300 n4        1 MOL     -0.409200
     28 H8          1.5750    2.7430    0.5300 hn        1 MOL      0.238642
     29 H9          1.5670    5.5210    0.8130 h1        1 MOL      0.065371
     30 H10         3.3140    5.5430   -1.0570 hc        1 MOL      0.133511
     31 H11         3.0560    3.9410   -1.3600 hc        1 MOL      0.133511
     32 H12         5.0200    4.0760    0.1760 hc        1 MOL      0.041531
     33 H13         3.7240    3.1890    0.8090 hc        1 MOL      0.041531
     34 H14         3.1330    5.3440    1.9880 hc        1 MOL      0.019446
     35 H15         4.5410    6.1560    1.1810 hc        1 MOL      0.019446
     36 H16         6.0060    4.6260    2.1860 hx        1 MOL      0.059419
     37 H17         4.7190    3.8390    2.9950 hx        1 MOL      0.059419
     38 H18         4.1810    5.7400    4.2730 hn        1 MOL      0.329136
     39 H19         5.7520    5.7270    4.4110 hn        1 MOL      0.329136
     40 H20         5.1370    6.8080    3.4910 hn        1 MOL      0.329136
     41 N4         -0.2830    4.6020   -1.7190 n         1 MOL     -0.363379
     42 C13        -1.3700    5.1250   -2.6550 c3        1 MOL      0.105212
     43 C14        -2.7340    4.9700   -1.9150 c         1 MOL      0.386583
     44 O6         -3.7210    5.5200   -2.4220 o         1 MOL     -0.549261
     45 C15        -1.3200    4.3470   -4.0160 c3        1 MOL     -0.074914
     46 C16        -1.6340    2.8230   -4.0080 c         1 MOL      0.730233
     47 O7         -1.5590    2.1010   -5.0420 o         1 MOL     -0.705729
     48 O8         -1.9260    2.2710   -2.9100 o         1 MOL     -0.705729
     49 H21        -0.2600    3.5980   -1.6250 hn        1 MOL      0.218781
     50 H22        -1.2310    6.1840   -2.9000 h1        1 MOL      0.089305
     51 H23        -0.3620    4.5370   -4.5050 hc        1 MOL      0.022612
     52 H24        -1.9890    4.8750   -4.7040 hc        1 MOL      0.022612
     53 N5         -2.8080    4.3240   -0.7720 n         1 MOL      0.092909
     54 C17        -3.8850    4.5430    0.1580 c3        1 MOL     -0.389920
     55 C18        -5.1070    3.6460   -0.1910 c         1 MOL      0.642922
     56 O9         -6.2450    3.9510    0.2540 o         1 MOL     -0.613256
     57 H25        -2.1020    3.6260   -0.5700 hn        1 MOL     -0.123029
     58 H26        -4.1580    5.6020    0.1530 h1        1 MOL      0.172863
     59 H27        -3.6060    4.2110    1.1500 h1        1 MOL      0.172863
     60 N6         -4.9000    2.5420   -0.9160 n         1 MOL     -0.363079
     61 C19        -6.0530    1.6760   -1.3410 c3        1 MOL     -0.025693
     62 C20        -6.7050    0.7630   -0.2710 c         1 MOL      0.298905
     63 O10        -7.5980    0.0100   -0.5790 o         1 MOL     -0.446430
     64 C21        -5.7380    0.9800   -2.6550 c3        1 MOL     -0.239483
     65 C22        -4.8470   -0.2860   -2.5050 c         1 MOL      0.686384
     66 N7         -5.1960   -1.4070   -3.0810 n         1 MOL     -0.751407
     67 O11        -3.7590   -0.1530   -1.8540 o         1 MOL     -0.660658
     68 H28        -3.9810    2.3990   -1.3050 hn        1 MOL      0.253000
     69 H29        -6.8310    2.4010   -1.5800 h1        1 MOL      0.144557
     70 H30        -5.1630    1.6890   -3.2300 hc        1 MOL      0.094101
     71 H31        -6.7360    0.7350   -3.0370 hc        1 MOL      0.094101
     72 H32        -6.1280   -1.4260   -3.4500 hn        1 MOL      0.382483
     73 H33        -4.6690   -2.2250   -2.7920 hn        1 MOL      0.382483
     74 N8         -6.2330    0.9060    0.9500 n         1 MOL     -0.032989
     75 C23        -6.3600    0.1060    2.1390 c3        1 MOL     -0.428099
     76 C24        -5.6350   -1.2380    2.1060 c         1 MOL      0.633523
     77 O12        -6.2270   -2.2180    2.5210 o         1 MOL     -0.487869
     78 H34        -5.4740    1.5660    0.9910 hn        1 MOL      0.236868
     79 H35        -7.4290   -0.0750    2.2620 h1        1 MOL      0.156113
     80 H36        -5.9690    0.7080    2.9680 h1        1 MOL      0.156113
     81 N9         -4.3950   -1.2690    1.6460 n         1 MOL     -0.510106
     82 C25        -3.6100   -2.5040    1.6050 c3        1 MOL      0.249783
     83 C26        -2.1070   -2.1250    1.4640 c         1 MOL      0.595661
     84 O13        -1.7920   -1.2540    0.6550 o         1 MOL     -0.668317
     85 C27        -3.9730   -3.4450    0.4140 c3        1 MOL      0.257287
     86 C28        -5.2460   -4.2140    0.4550 ca        1 MOL     -0.040902
     87 C29        -6.3680   -3.6460   -0.1900 ca        1 MOL     -0.198576
     88 C30        -5.2700   -5.6000    0.9250 ca        1 MOL     -0.198576
     89 C31        -7.5490   -4.4460   -0.1000 ca        1 MOL     -0.184268
     90 C32        -6.4170   -6.3900    0.9180 ca        1 MOL     -0.184268
     91 C33        -7.5960   -5.7570    0.4680 ca        1 MOL      0.267744
     92 O14        -8.8250   -6.3360    0.6490 oh        1 MOL     -0.474168
     93 H37        -4.0050   -0.4280    1.2550 hn        1 MOL      0.276789
     94 H38        -3.6660   -3.0560    2.5430 h1        1 MOL     -0.046998
     95 H39        -3.1890   -4.2000    0.3540 hc        1 MOL     -0.083638
     96 H40        -4.0510   -2.9450   -0.5550 hc        1 MOL     -0.083638
     97 H41        -6.2730   -2.6950   -0.6870 ha        1 MOL      0.130300
     98 H42        -4.3530   -5.9620    1.3560 ha        1 MOL      0.130300
     99 H43        -8.4280   -4.0240   -0.5650 ha        1 MOL      0.131002
    100 H44        -6.5120   -7.4220    1.1960 ha        1 MOL      0.131002
    101 H45        -8.8030   -7.2450    0.9420 ho        1 MOL      0.365120
    102 N10        -1.1760   -2.8550    2.0640 n         1 MOL     -0.500384
    103 C34         0.2960   -2.6540    1.9910 c3        1 MOL     -0.039800
    104 C35         1.0300   -3.7150    1.1230 c         1 MOL      0.485325
    105 O15         0.9990   -4.9020    1.4100 o         1 MOL     -0.545962
    106 C36         1.0040   -2.6210    3.3470 c3        1 MOL      0.197397
    107 C37         0.1950   -1.7360    4.3680 c3        1 MOL      0.038036
    108 C38         2.4400   -2.0300    3.1690 c3        1 MOL     -0.367149
    109 C39         0.5210   -2.0320    5.8910 c3        1 MOL     -0.155942
    110 H46        -1.4940   -3.6410    2.6250 hn        1 MOL      0.290482
    111 H47         0.4440   -1.7110    1.4640 h1        1 MOL      0.120100
    112 H48         1.1070   -3.6590    3.6570 hc        1 MOL     -0.001017
    113 H49        -0.8990   -1.8260    4.3260 hc        1 MOL     -0.001723
    114 H50         0.3470   -0.6620    4.2810 hc        1 MOL     -0.001723
    115 H51         3.0620   -2.6740    2.5480 hc        1 MOL      0.089637
    116 H52         2.2990   -1.0370    2.7510 hc        1 MOL      0.089637
    117 H53         2.9030   -1.9050    4.1380 hc        1 MOL      0.089637
    118 H54         1.5810   -1.9400    6.1090 hc        1 MOL      0.035884
    119 H55        -0.1010   -1.4830    6.5930 hc        1 MOL      0.035884
    120 H56         0.1990   -3.0710    6.0330 hc        1 MOL      0.035884
    121 N11         1.6310   -3.2320    0.0710 n         1 MOL     -0.111737
    122 C40         2.3700   -4.1610   -0.8310 c3        1 MOL     -0.149789
    123 C41         3.8160   -4.1000   -0.5230 c         1 MOL      0.494913
    124 O16         4.3280   -3.3080    0.2420 o         1 MOL     -0.442939
    125 C42         1.9890   -3.8140   -2.3340 c3        1 MOL      0.031648
    126 O17         1.9620   -2.4360   -2.7040 oh        1 MOL     -0.490549
    127 H57         1.6310   -2.2610   -0.1670 hn        1 MOL      0.229146
    128 H58         2.0500   -5.1480   -0.5180 h1        1 MOL      0.088325
    129 H59         0.9220   -4.0240   -2.2930 h1        1 MOL      0.057880
    130 H60         2.4120   -4.4910   -3.0770 h1        1 MOL      0.057880
    131 H61         1.4520   -2.0470   -1.9780 ho        1 MOL      0.374279
    132 N12         4.5990   -5.0160   -1.1780 n         1 MOL     -0.349699
    133 C43         5.9870   -5.1050   -0.9750 c3        1 MOL      0.072382
    134 C44         6.7950   -3.8210   -1.4220 c         1 MOL      0.458737
    135 O18         7.7580   -3.3520   -0.8350 o         1 MOL     -0.503588
    136 C45         6.5450   -6.3040   -1.7580 c3        1 MOL     -0.147133
    137 H62         4.1970   -5.6780   -1.8260 hn        1 MOL      0.245587
    138 H63         6.1570   -5.2810    0.0950 h1        1 MOL      0.063777
    139 H64         5.9690   -7.2160   -1.6100 hc        1 MOL      0.049580
    140 H65         6.5940   -5.9080   -2.7710 hc        1 MOL      0.049580
    141 H66         7.5930   -6.4450   -1.5090 hc        1 MOL      0.049580
    142 N13         6.4540   -3.2260   -2.5830 n         1 MOL     -0.271580
    143 C46         7.0800   -1.9760   -3.1190 c3        1 MOL      0.038320
    144 C47         7.0210   -0.8330   -2.0560 c         1 MOL      0.372345
    145 O19         8.0210   -0.1800   -1.7310 o         1 MOL     -0.479592
    146 C48         6.2740   -1.6450   -4.4170 c3        1 MOL     -0.271341
    147 H67         5.6820   -3.6670   -3.0620 hn        1 MOL      0.198914
    148 H68         8.1460   -2.1750   -3.2970 h1        1 MOL      0.093808
    149 H69         6.7390   -0.8730   -5.0420 hc        1 MOL      0.089924
    150 H70         6.2640   -2.5210   -5.0570 hc        1 MOL      0.089924
    151 H71         5.2750   -1.3460   -4.1060 hc        1 MOL      0.089924
    152 N14         5.8210   -0.6210   -1.4780 n         1 MOL     -0.146650
    153 C49         5.4690    0.3700   -0.4320 c3        1 MOL     -0.143384
    154 C50         6.2950    0.2670    0.8060 c         1 MOL      0.459001
    155 O20         6.7240    1.2590    1.3120 o         1 MOL     -0.556959
    156 C51         4.0050    0.2280   -0.0290 c3        1 MOL      0.136589
    157 C52         3.1880    0.7050   -1.2430 c3        1 MOL     -0.004361
    158 C53         1.6570    0.6400   -1.0440 c         1 MOL      0.745081
    159 O21         1.1900   -0.4430   -0.8100 o         1 MOL     -0.794580
    160 O22         0.9170    1.6550   -1.2670 o         1 MOL     -0.794580
    161 H72         5.0430   -1.0710   -1.9430 hn        1 MOL      0.169555
    162 H73         5.6210    1.3650   -0.8590 h1        1 MOL      0.103503
    163 H74         3.7810    0.9380    0.7640 hc        1 MOL     -0.070281
    164 H75         3.7780   -0.7630    0.3580 hc        1 MOL     -0.070281
    165 H76         3.3570    0.0330   -2.0810 hc        1 MOL     -0.020460
    166 H77         3.5330    1.6960   -1.5090 hc        1 MOL     -0.020460
    167 N15         6.6350   -0.9240    1.2600 n         1 MOL     -0.040848
    168 C54         7.4500   -1.1400    2.3980 c3        1 MOL     -0.126540
    169 H78         8.1880   -1.9110    2.1760 h1        1 MOL      0.061195
    170 H79         7.9610   -0.2140    2.6610 h1        1 MOL      0.061195
    171 H80         6.8300   -1.4630    3.2340 h1        1 MOL      0.061195
    172 H81         6.2650   -1.7390    0.7960 hn        1 MOL      0.110742
    173 Ca1        -1.2310    0.2400   -1.4660 Ca        1 MOL      1.772958
    174 O23        -0.4220   -0.2020   -3.9610 oh        1 MOL     -0.872148
    175 H82        -0.8400    0.5030   -4.4580 ho        1 MOL      0.413472
    176 H83         0.0750   -0.6880   -4.6110 ho        1 MOL      0.413472
    177 O24        -1.5820   -2.2850   -2.1740 oh        1 MOL     -0.872148
    178 H84        -1.6320   -3.1950   -1.8930 ho        1 MOL      0.413472
    179 H85        -1.9380   -2.2770   -3.0530 ho        1 MOL      0.413472
@<TRIPOS>BOND
     1    1    2 1   
     2    1    4 1   
     3    1    5 1   
     4    1    6 1   
     5    2    3 2   
     6    2    7 1   
     7    7    8 1   
     8    7   15 1   
     9    8    9 1   
    10    8   11 1   
    11    8   16 1   
    12    9   10 2   
    13    9   19 1   
    14   11   12 1   
    15   11   17 1   
    16   11   18 1   
    17   12   13 1   
    18   12   14 1   
    19   19   20 1   
    20   19   28 1   
    21   20   21 1   
    22   20   23 1   
    23   20   29 1   
    24   21   22 2   
    25   21   41 1   
    26   23   24 1   
    27   23   30 1   
    28   23   31 1   
    29   24   25 1   
    30   24   32 1   
    31   24   33 1   
    32   25   26 1   
    33   25   34 1   
    34   25   35 1   
    35   26   27 1   
    36   26   36 1   
    37   26   37 1   
    38   27   38 1   
    39   27   39 1   
    40   27   40 1   
    41   41   42 1   
    42   41   49 1   
    43   42   43 1   
    44   42   45 1   
    45   42   50 1   
    46   43   44 2   
    47   43   53 1   
    48   45   46 1   
    49   45   51 1   
    50   45   52 1   
    51   46   47 1   
    52   46   48 1   
    53   53   54 1   
    54   53   57 1   
    55   54   55 1   
    56   54   58 1   
    57   54   59 1   
    58   55   56 2   
    59   55   60 1   
    60   60   61 1   
    61   60   68 1   
    62   61   62 1   
    63   61   64 1   
    64   61   69 1   
    65   62   63 2   
    66   62   74 1   
    67   64   65 1   
    68   64   70 1   
    69   64   71 1   
    70   65   66 1   
    71   65   67 2   
    72   66   72 1   
    73   66   73 1   
    74   74   75 1   
    75   74   78 1   
    76   75   76 1   
    77   75   79 1   
    78   75   80 1   
    79   76   77 2   
    80   76   81 1   
    81   81   82 1   
    82   81   93 1   
    83   82   83 1   
    84   82   85 1   
    85   82   94 1   
    86   83   84 2   
    87   83  102 1   
    88   85   86 1   
    89   85   95 1   
    90   85   96 1   
    91   86   87 ar  
    92   86   88 ar  
    93   87   89 ar  
    94   87   97 1   
    95   88   90 ar  
    96   88   98 1   
    97   89   91 ar  
    98   89   99 1   
    99   90   91 ar  
   100   90  100 1   
   101   91   92 1   
   102   92  101 1   
   103  102  103 1   
   104  102  110 1   
   105  103  104 1   
   106  103  106 1   
   107  103  111 1   
   108  104  105 2   
   109  104  121 1   
   110  106  107 1   
   111  106  108 1   
   112  106  112 1   
   113  107  109 1   
   114  107  113 1   
   115  107  114 1   
   116  108  115 1   
   117  108  116 1   
   118  108  117 1   
   119  109  118 1   
   120  109  119 1   
   121  109  120 1   
   122  121  122 1   
   123  121  127 1   
   124  122  123 1   
   125  122  125 1   
   126  122  128 1   
   127  123  124 2   
   128  123  132 1   
   129  125  126 1   
   130  125  129 1   
   131  125  130 1   
   132  126  131 1   
   133  132  133 1   
   134  132  137 1   
   135  133  134 1   
   136  133  136 1   
   137  133  138 1   
   138  134  135 2   
   139  134  142 1   
   140  136  139 1   
   141  136  140 1   
   142  136  141 1   
   143  142  143 1   
   144  142  147 1   
   145  143  144 1   
   146  143  146 1   
   147  143  148 1   
   148  144  145 2   
   149  144  152 1   
   150  146  149 1   
   151  146  150 1   
   152  146  151 1   
   153  152  153 1   
   154  152  161 1   
   155  153  154 1   
   156  153  156 1   
   157  153  162 1   
   158  154  155 2   
   159  154  167 1   
   160  156  157 1   
   161  156  163 1   
   162  156  164 1   
   163  157  158 1   
   164  157  165 1   
   165  157  166 1   
   166  158  159 1   
   167  158  160 1   
   168  167  168 1   
   169  167  172 1   
   170  168  169 1   
   171  168  170 1   
   172  168  171 1   
   173  174  175 1   
   174  174  176 1   
   175  177  178 1   
   176  177  179 1   
@<TRIPOS>SUBSTRUCTURE
     1 MOL         1 TEMP              0 ****  ****    0 ROOT
