@<TRIPOS>MOLECULE
MOL
  175   173     1     0     0
SMALL
resp


@<TRIPOS>ATOM
      1 C1          0.4530    4.0490    5.3660 c3        1 MOL     -0.362505
      2 C2         -0.2400    4.0110    3.9890 c         1 MOL      0.715951
      3 O1          0.4030    4.2070    2.9700 o         1 MOL     -0.563764
      4 H1         -0.0140    4.8140    5.9850 hc        1 MOL      0.086151
      5 H2          0.3530    3.0780    5.8510 hc        1 MOL      0.086151
      6 H3          1.5090    4.2820    5.2350 hc        1 MOL      0.086151
      7 N1         -1.5400    3.8170    3.9160 n         1 MOL     -0.560281
      8 C3         -2.3250    3.4950    2.7020 c3        1 MOL      0.187568
      9 C4         -2.6600    4.6620    1.7690 c         1 MOL      0.490384
     10 O2         -3.1950    5.7060    2.1420 o         1 MOL     -0.572549
     11 C5         -3.6060    2.8110    3.1280 c3        1 MOL     -0.339559
     12 C6         -4.3670    2.0250    2.1150 c         1 MOL      0.888940
     13 O3         -5.3520    1.4350    2.6210 o         1 MOL     -0.711132
     14 O4         -3.8240    1.8430    1.0060 o         1 MOL     -0.711132
     15 H4         -1.8530    3.5980    4.8600 hn        1 MOL      0.275135
     16 H5         -1.8930    2.7000    2.0860 h1        1 MOL      0.070218
     17 H6         -4.3570    3.4840    3.5480 hc        1 MOL      0.063239
     18 H7         -3.4560    2.0810    3.9200 hc        1 MOL      0.063239
     19 N2         -2.2110    4.5430    0.4840 n         1 MOL     -0.402923
     20 C7         -2.4180    5.4950   -0.6090 c3        1 MOL      0.385105
     21 C8         -3.5570    5.1120   -1.5570 c         1 MOL      0.232961
     22 O5         -3.9530    5.9580   -2.3600 o         1 MOL     -0.555018
     23 C9         -1.1100    5.5220   -1.3270 c3        1 MOL     -0.372713
     24 H8         -1.6850    3.7210    0.2280 hn        1 MOL      0.243689
     25 H9         -2.6600    6.4710   -0.1980 h1        1 MOL      0.015709
     26 H10        -1.3110    5.7640   -2.3740 hc        1 MOL      0.088110
     27 H11        -0.5410    6.3560   -0.9210 hc        1 MOL      0.088110
     28 H12        -0.4360    4.6740   -1.2160 hc        1 MOL      0.088110
     29 N3         -4.0220    3.8430   -1.6930 n         1 MOL     -0.096210
     30 C10        -5.0170    3.4360   -2.7200 c3        1 MOL      0.034710
     31 C11        -6.0870    2.4410   -2.1550 c         1 MOL      0.330599
     32 O6         -6.9190    2.0260   -2.9000 o         1 MOL     -0.508451
     33 C12        -4.2220    2.6690   -3.8680 c3        1 MOL     -0.110959
     34 C13        -3.4900    1.3930   -3.4380 c         1 MOL      0.652079
     35 O7         -3.0620    0.6060   -4.3740 o         1 MOL     -0.683892
     36 O8         -3.5030    1.0650   -2.2290 o         1 MOL     -0.683892
     37 H13        -3.6390    3.1290   -1.0940 hn        1 MOL      0.144193
     38 H14        -5.4340    4.2830   -3.2550 h1        1 MOL      0.097280
     39 H15        -3.4040    3.3260   -4.1650 hc        1 MOL      0.029231
     40 H16        -4.9070    2.4850   -4.6980 hc        1 MOL      0.029231
     41 N4         -6.0960    2.1120   -0.8800 n         1 MOL     -0.183704
     42 C14        -7.1180    1.1890   -0.4140 c3        1 MOL     -0.056302
     43 C15        -7.0700   -0.2730   -0.8910 c         1 MOL      0.428721
     44 O9         -7.9900   -1.0680   -0.6640 o         1 MOL     -0.606520
     45 H17        -5.3240    2.3980   -0.2900 hn        1 MOL      0.049296
     46 H18        -8.1130    1.5820   -0.6410 h1        1 MOL      0.075143
     47 H19        -7.0990    1.2240    0.6830 h1        1 MOL      0.075143
     48 N5         -5.9720   -0.7170   -1.5110 n         1 MOL     -0.205180
     49 C16        -5.9760   -2.0090   -2.1720 c3        1 MOL      0.010301
     50 C17        -5.9230   -3.2770   -1.2800 c         1 MOL      0.398266
     51 O10        -5.5990   -4.3810   -1.7340 o         1 MOL     -0.505079
     52 C18        -4.8070   -2.1380   -3.2090 c3        1 MOL     -0.238164
     53 C19        -3.3980   -2.3750   -2.6740 c         1 MOL      0.572311
     54 N6         -2.5240   -2.8990   -3.4880 n         1 MOL     -0.569052
     55 O11        -3.0490   -2.1430   -1.5240 o         1 MOL     -0.642660
     56 H20        -5.1570   -0.1270   -1.4910 hn        1 MOL      0.292190
     57 H21        -6.8710   -2.0750   -2.7920 h1        1 MOL      0.113446
     58 H22        -4.8110   -1.2790   -3.8860 hc        1 MOL      0.080276
     59 H23        -5.1070   -2.9490   -3.8650 hc        1 MOL      0.080276
     60 H24        -2.7350   -2.9280   -4.4740 hn        1 MOL      0.326156
     61 H25        -1.5750   -2.8650   -3.1620 hn        1 MOL      0.326156
     62 N7         -6.2480   -3.2110   -0.0050 n         1 MOL     -0.234191
     63 C20        -6.2080   -4.4190    0.8440 c3        1 MOL     -0.091347
     64 C21        -4.8400   -4.7030    1.4430 c         1 MOL      0.478758
     65 O12        -4.8580   -5.4150    2.4320 o         1 MOL     -0.580111
     66 H26        -6.6230   -2.3640    0.3930 hn        1 MOL      0.241041
     67 H27        -6.4790   -5.2560    0.1990 h1        1 MOL      0.084532
     68 H28        -6.9850   -4.3580    1.5980 h1        1 MOL      0.084532
     69 N8         -3.7290   -4.1440    0.9850 n         1 MOL     -0.139457
     70 C22        -2.3180   -4.6030    1.1700 c3        1 MOL     -0.176949
     71 C23        -1.3370   -3.4420    1.5410 c         1 MOL      0.661423
     72 O13        -1.4770   -2.3630    0.9960 o         1 MOL     -0.601480
     73 C24        -1.8160   -5.3980    0.0070 c3        1 MOL      0.684474
     74 C25        -2.5170   -6.7210   -0.2870 c3        1 MOL     -0.339519
     75 O14        -1.8660   -4.5020   -1.1450 oh        1 MOL     -0.673679
     76 H29        -3.8670   -3.3090    0.4360 hn        1 MOL      0.033461
     77 H30        -2.2890   -5.2030    2.0820 h1        1 MOL      0.041058
     78 H31        -0.8240   -5.7630    0.2650 h1        1 MOL     -0.107696
     79 H32        -1.9040   -3.5810   -0.8740 ho        1 MOL      0.395414
     80 H33        -2.0100   -7.3050   -1.0530 hc        1 MOL      0.073595
     81 H34        -2.5920   -7.3390    0.6060 hc        1 MOL      0.073595
     82 H35        -3.4490   -6.4320   -0.7540 hc        1 MOL      0.073595
     83 N9         -0.3230   -3.6360    2.3400 n         1 MOL     -0.601632
     84 C26         0.8960   -2.7650    2.3250 c3        1 MOL     -0.030384
     85 C27         1.6410   -2.9730    0.9880 c         1 MOL      0.412317
     86 O15         2.0710   -4.0660    0.6340 o         1 MOL     -0.559664
     87 C28         1.8310   -2.9930    3.5960 c3        1 MOL      0.228800
     88 C29         0.9870   -3.2600    4.9080 c3        1 MOL      0.061638
     89 C30         2.8620   -1.8030    3.6660 c3        1 MOL     -0.379166
     90 C31         1.8100   -3.5320    6.1710 c3        1 MOL     -0.154232
     91 H36        -0.2970   -4.4940    2.8920 hn        1 MOL      0.318538
     92 H37         0.4890   -1.7650    2.2180 h1        1 MOL      0.082856
     93 H38         2.4010   -3.9120    3.4950 hc        1 MOL     -0.009101
     94 H39         0.3130   -4.0940    4.7320 hc        1 MOL      0.000585
     95 H40         0.3820   -2.3700    5.0960 hc        1 MOL      0.000585
     96 H41         2.3100   -0.8920    3.8730 hc        1 MOL      0.077676
     97 H42         3.4990   -1.8430    4.5430 hc        1 MOL      0.077676
     98 H43         3.4890   -1.6620    2.7880 hc        1 MOL      0.077676
     99 H44         2.1810   -2.6320    6.6550 hc        1 MOL      0.031809
    100 H45         1.2440   -4.0760    6.9280 hc        1 MOL      0.031809
    101 H46         2.6430   -4.1870    5.8950 hc        1 MOL      0.031809
    102 N10         2.0390   -1.8960    0.3370 n         1 MOL     -0.134774
    103 C32         2.8310   -1.9090   -0.9060 c3        1 MOL     -0.007951
    104 C33         4.2230   -1.4710   -0.6360 c         1 MOL      0.394283
    105 O16         4.4770   -0.8480    0.3930 o         1 MOL     -0.336673
    106 C34         2.0710   -1.0950   -2.0020 c3        1 MOL     -0.270302
    107 C35         0.4950   -1.1680   -2.1330 c         1 MOL      0.786773
    108 O17         0.0360   -2.0260   -2.9370 o         1 MOL     -0.689450
    109 O18        -0.1520   -0.3830   -1.4540 o         1 MOL     -0.689450
    110 H47         1.6980   -1.0040    0.6750 hn        1 MOL      0.265885
    111 H48         2.8750   -2.9230   -1.3020 h1        1 MOL      0.086727
    112 H49         2.4680   -1.2440   -3.0100 hc        1 MOL      0.057161
    113 H50         2.3200   -0.0370   -1.9450 hc        1 MOL      0.057161
    114 N11         5.0820   -1.6660   -1.6390 n         1 MOL     -0.501483
    115 C36         6.4910   -1.2250   -1.4810 c3        1 MOL      0.357914
    116 C37         6.6560    0.2810   -1.2910 c         1 MOL      0.271743
    117 O19         7.4340    0.6450   -0.4230 o         1 MOL     -0.470180
    118 C38         7.4340   -1.7320   -2.5930 c3        1 MOL     -0.196997
    119 C39         8.9330   -1.8130   -2.1580 ca        1 MOL      0.123646
    120 C40         9.8670   -0.8590   -2.5290 ca        1 MOL     -0.226557
    121 C41         9.3380   -2.9050   -1.3470 ca        1 MOL     -0.226557
    122 C42        11.2320   -0.8980   -2.1880 ca        1 MOL     -0.040324
    123 C43        10.6950   -2.9480   -0.8820 ca        1 MOL     -0.040324
    124 C44        11.6530   -1.9880   -1.3700 ca        1 MOL     -0.173743
    125 H51         4.9480   -2.3950   -2.3350 hn        1 MOL      0.302351
    126 H52         6.7700   -1.7280   -0.5430 h1        1 MOL      0.012747
    127 H53         7.4180   -1.1170   -3.4950 hc        1 MOL      0.059900
    128 H54         7.0370   -2.6940   -2.9150 hc        1 MOL      0.059900
    129 H55         9.5430   -0.0160   -3.1160 ha        1 MOL      0.136668
    130 H56         8.5650   -3.6140   -1.1290 ha        1 MOL      0.136668
    131 H57        11.9960   -0.2160   -2.5390 ha        1 MOL      0.099594
    132 H58        11.0020   -3.7820   -0.2570 ha        1 MOL      0.099594
    133 H59        12.6890   -2.1770   -1.0950 ha        1 MOL      0.108841
    134 N12         6.0400    1.2000   -2.0690 n         1 MOL     -0.041465
    135 C45         6.0470    2.6500   -1.8500 c3        1 MOL     -0.096320
    136 C46         5.4830    3.0590   -0.4790 c         1 MOL      0.324822
    137 O20         5.7730    4.1580    0.0310 o         1 MOL     -0.489056
    138 C47         5.1990    3.3780   -2.9400 c3        1 MOL     -0.027877
    139 C48         5.2670    2.3160   -4.0290 c3        1 MOL      0.099735
    140 C49         5.2120    1.0710   -3.1980 c3        1 MOL     -0.108353
    141 H60         7.0550    3.0440   -1.8940 h1        1 MOL      0.108593
    142 H61         4.1730    3.6610   -2.7010 hc        1 MOL      0.044889
    143 H62         5.6920    4.2820   -3.3000 hc        1 MOL      0.044889
    144 H63         4.5170    2.4260   -4.8070 hc        1 MOL     -0.003585
    145 H64         6.2490    2.4800   -4.4740 hc        1 MOL     -0.003585
    146 H65         4.2060    0.8900   -2.8240 h1        1 MOL      0.036560
    147 H66         5.4690    0.1950   -3.7860 h1        1 MOL      0.036560
    148 N13         4.5320    2.2640    0.1000 n         1 MOL     -0.154979
    149 C50         4.0410    2.4890    1.4600 c3        1 MOL     -0.022778
    150 C51         4.9990    2.0690    2.5740 c         1 MOL      0.436502
    151 O21         5.2480    2.9580    3.4350 o         1 MOL     -0.557688
    152 C52         2.6620    1.7120    1.6510 c3        1 MOL     -0.320412
    153 C53         1.6640    2.3750    0.6590 c3        1 MOL      0.053242
    154 C54         0.2570    1.7520    0.7760 c         1 MOL      0.605016
    155 O22        -0.6950    2.1730    0.0140 o         1 MOL     -0.736982
    156 O23         0.0220    0.7420    1.4130 o         1 MOL     -0.736982
    157 H67         4.3380    1.3730   -0.3300 hn        1 MOL      0.195037
    158 H68         3.7670    3.5380    1.5610 h1        1 MOL      0.108615
    159 H69         2.3240    1.9460    2.6650 hc        1 MOL      0.102051
    160 H70         2.7360    0.6280    1.5240 hc        1 MOL      0.102051
    161 H71         1.9460    2.3390   -0.3880 hc        1 MOL      0.042138
    162 H72         1.5360    3.4290    0.9200 hc        1 MOL      0.042138
    163 N14         5.6420    0.9140    2.4910 n         1 MOL     -0.054822
    164 C55         6.7070    0.4230    3.4170 c3        1 MOL     -0.223452
    165 H73         6.5470    0.8440    4.4090 h1        1 MOL      0.087436
    166 H74         6.6680   -0.6650    3.4720 h1        1 MOL      0.087436
    167 H75         7.6840    0.7330    3.0440 h1        1 MOL      0.087436
    168 H76         5.3930    0.3530    1.6870 hn        1 MOL      0.082743
    169 Ca1        -2.1880    0.0110    0.0460 Ca        1 MOL      1.733343
    170 O24        -2.1460   -0.0630    2.7210 oh        1 MOL     -0.754038
    171 H77        -1.2510    0.2510    2.6050 ho        1 MOL      0.368365
    172 H78        -2.1970   -0.2760    3.6550 ho        1 MOL      0.368365
    173 O25        -4.5150   -0.8170    1.2270 oh        1 MOL     -0.754038
    174 H79        -4.9370   -1.5300    1.7150 ho        1 MOL      0.368365
    175 H80        -4.8550   -0.0190    1.6120 ho        1 MOL      0.368365
@<TRIPOS>BOND
     1    1    2 1   
     2    1    4 1   
     3    1    5 1   
     4    1    6 1   
     5    2    3 2   
     6    2    7 1   
     7    7    8 1   
     8    7   15 1   
     9    8    9 1   
    10    8   11 1   
    11    8   16 1   
    12    9   10 2   
    13    9   19 1   
    14   11   12 1   
    15   11   17 1   
    16   11   18 1   
    17   12   13 1   
    18   12   14 1   
    19   19   20 1   
    20   19   24 1   
    21   20   21 1   
    22   20   23 1   
    23   20   25 1   
    24   21   22 2   
    25   21   29 1   
    26   23   26 1   
    27   23   27 1   
    28   23   28 1   
    29   29   30 1   
    30   29   37 1   
    31   30   31 1   
    32   30   33 1   
    33   30   38 1   
    34   31   32 2   
    35   31   41 1   
    36   33   34 1   
    37   33   39 1   
    38   33   40 1   
    39   34   35 1   
    40   34   36 1   
    41   41   42 1   
    42   41   45 1   
    43   42   43 1   
    44   42   46 1   
    45   42   47 1   
    46   43   44 2   
    47   43   48 1   
    48   48   49 1   
    49   48   56 1   
    50   49   50 1   
    51   49   52 1   
    52   49   57 1   
    53   50   51 2   
    54   50   62 1   
    55   52   53 1   
    56   52   58 1   
    57   52   59 1   
    58   53   54 1   
    59   53   55 2   
    60   54   60 1   
    61   54   61 1   
    62   62   63 1   
    63   62   66 1   
    64   63   64 1   
    65   63   67 1   
    66   63   68 1   
    67   64   65 2   
    68   64   69 1   
    69   69   70 1   
    70   69   76 1   
    71   70   71 1   
    72   70   73 1   
    73   70   77 1   
    74   71   72 2   
    75   71   83 1   
    76   73   74 1   
    77   73   75 1   
    78   73   78 1   
    79   74   80 1   
    80   74   81 1   
    81   74   82 1   
    82   75   79 1   
    83   83   84 1   
    84   83   91 1   
    85   84   85 1   
    86   84   87 1   
    87   84   92 1   
    88   85   86 2   
    89   85  102 1   
    90   87   88 1   
    91   87   89 1   
    92   87   93 1   
    93   88   90 1   
    94   88   94 1   
    95   88   95 1   
    96   89   96 1   
    97   89   97 1   
    98   89   98 1   
    99   90   99 1   
   100   90  100 1   
   101   90  101 1   
   102  102  103 1   
   103  102  110 1   
   104  103  104 1   
   105  103  106 1   
   106  103  111 1   
   107  104  105 2   
   108  104  114 1   
   109  106  107 1   
   110  106  112 1   
   111  106  113 1   
   112  107  108 1   
   113  107  109 1   
   114  114  115 1   
   115  114  125 1   
   116  115  116 1   
   117  115  118 1   
   118  115  126 1   
   119  116  117 2   
   120  116  134 1   
   121  118  119 1   
   122  118  127 1   
   123  118  128 1   
   124  119  120 ar  
   125  119  121 ar  
   126  120  122 ar  
   127  120  129 1   
   128  121  123 ar  
   129  121  130 1   
   130  122  124 ar  
   131  122  131 1   
   132  123  124 ar  
   133  123  132 1   
   134  124  133 1   
   135  134  135 1   
   136  134  140 1   
   137  135  136 1   
   138  135  138 1   
   139  135  141 1   
   140  136  137 2   
   141  136  148 1   
   142  138  139 1   
   143  138  142 1   
   144  138  143 1   
   145  139  140 1   
   146  139  144 1   
   147  139  145 1   
   148  140  146 1   
   149  140  147 1   
   150  148  149 1   
   151  148  157 1   
   152  149  150 1   
   153  149  152 1   
   154  149  158 1   
   155  150  151 2   
   156  150  163 1   
   157  152  153 1   
   158  152  159 1   
   159  152  160 1   
   160  153  154 1   
   161  153  161 1   
   162  153  162 1   
   163  154  155 1   
   164  154  156 1   
   165  163  164 1   
   166  163  168 1   
   167  164  165 1   
   168  164  166 1   
   169  164  167 1   
   170  170  171 1   
   171  170  172 1   
   172  173  174 1   
   173  173  175 1   
@<TRIPOS>SUBSTRUCTURE
     1 MOL         1 TEMP              0 ****  ****    0 ROOT
