@<TRIPOS>MOLECULE
MOL
  179   176     1     0     0
SMALL
resp


@<TRIPOS>ATOM
      1 C1          1.4590    4.2940    4.0990 c3        1 MOL     -0.426531
      2 C2          0.7380    3.5820    2.8700 c         1 MOL      0.621029
      3 O1          1.2490    3.3580    1.8020 o         1 MOL     -0.557014
      4 H1          0.8150    5.0810    4.4910 hc        1 MOL      0.116048
      5 H2          1.6530    3.5610    4.8820 hc        1 MOL      0.116048
      6 H3          2.4020    4.7280    3.7650 hc        1 MOL      0.116048
      7 N1         -0.5460    3.3700    3.0010 n         1 MOL     -0.606579
      8 C3         -1.4120    2.7020    2.0150 c3        1 MOL      0.023578
      9 C4         -2.2680    3.8160    1.4390 c         1 MOL      0.668847
     10 O2         -3.3750    4.0460    1.9400 o         1 MOL     -0.507796
     11 C5         -2.2830    1.6130    2.6230 c3        1 MOL     -0.165044
     12 C6         -3.2000    0.8250    1.6780 c         1 MOL      0.717057
     13 O3         -4.3120    0.3850    2.0510 o         1 MOL     -0.717947
     14 O4         -2.8760    0.6580    0.4950 o         1 MOL     -0.717947
     15 H4         -1.0600    3.5610    3.8480 hn        1 MOL      0.356260
     16 H5         -0.7830    2.2830    1.2340 h1        1 MOL      0.007323
     17 H6         -2.8860    2.0840    3.3940 hc        1 MOL      0.050622
     18 H7         -1.6530    0.8180    3.0360 hc        1 MOL      0.050622
     19 N2         -1.7000    4.5490    0.4730 n         1 MOL     -0.587564
     20 C7         -2.2780    5.7760   -0.1930 c3        1 MOL     -0.061245
     21 C8         -3.5070    5.3890   -1.0530 c         1 MOL      0.548504
     22 O5         -4.5460    5.9780   -0.9480 o         1 MOL     -0.524374
     23 C9         -1.1610    6.6090   -0.8460 c3        1 MOL     -0.214271
     24 C10        -0.0520    7.2240    0.0700 c3        1 MOL      0.311399
     25 C11         1.0490    8.1620   -0.5200 c3        1 MOL     -0.186422
     26 C12         2.0210    8.6750    0.5850 c3        1 MOL     -0.005430
     27 N3          3.1370    7.7390    0.8360 n4        1 MOL     -0.505413
     28 H8         -0.8030    4.2320    0.1250 hn        1 MOL      0.393202
     29 H9         -2.6360    6.3370    0.6730 h1        1 MOL      0.106403
     30 H10        -1.6400    7.4580   -1.3380 hc        1 MOL      0.065746
     31 H11        -0.7690    5.9810   -1.6460 hc        1 MOL      0.065746
     32 H12         0.4950    6.4400    0.5890 hc        1 MOL     -0.041422
     33 H13        -0.4820    7.8530    0.8520 hc        1 MOL     -0.041422
     34 H14         0.5590    8.9920   -1.0120 hc        1 MOL      0.071718
     35 H15         1.6650    7.4830   -1.1170 hc        1 MOL      0.071718
     36 H16         1.3870    8.7980    1.4690 hx        1 MOL      0.120707
     37 H17         2.3850    9.6830    0.3740 hx        1 MOL      0.120707
     38 H18         2.8010    6.8190    1.0570 hn        1 MOL      0.376670
     39 H19         3.6610    7.6050   -0.0300 hn        1 MOL      0.376670
     40 H20         3.8310    8.0360    1.5130 hn        1 MOL      0.376670
     41 N4         -3.4080    4.2450   -1.7540 n         1 MOL     -0.330670
     42 C13        -4.4810    3.7080   -2.6100 c3        1 MOL     -0.098273
     43 C14        -5.6760    3.0790   -1.8550 c         1 MOL      0.449105
     44 O6         -6.7620    2.8890   -2.3800 o         1 MOL     -0.532687
     45 C15        -3.9490    2.7330   -3.6200 c3        1 MOL     -0.145081
     46 C16        -3.2000    1.6190   -2.8450 c         1 MOL      0.658006
     47 O7         -2.0960    1.8560   -2.3200 o         1 MOL     -0.746019
     48 O8         -3.7620    0.5100   -2.6620 o         1 MOL     -0.746019
     49 H21        -2.5650    3.7040   -1.6320 hn        1 MOL      0.269980
     50 H22        -4.8100    4.6180   -3.1120 h1        1 MOL      0.115293
     51 H23        -3.1900    3.2390   -4.2160 hc        1 MOL      0.065040
     52 H24        -4.6780    2.4450   -4.3860 hc        1 MOL      0.065040
     53 N5         -5.4140    2.6540   -0.6320 n         1 MOL     -0.001241
     54 C17        -6.4550    2.1280    0.2150 c3        1 MOL     -0.397218
     55 C18        -6.8580    0.7340   -0.0040 c         1 MOL      0.635260
     56 O9         -7.9490    0.3180    0.3690 o         1 MOL     -0.582150
     57 H25        -4.4600    2.6800   -0.3030 hn        1 MOL      0.121125
     58 H26        -7.3040    2.8070    0.0970 h1        1 MOL      0.153073
     59 H27        -6.0790    2.1710    1.2410 h1        1 MOL      0.153073
     60 N6         -6.0460   -0.0230   -0.7480 n         1 MOL     -0.256161
     61 C19        -6.3860   -1.4310   -0.8710 c3        1 MOL     -0.100479
     62 C20        -6.2510   -2.4070    0.2760 c         1 MOL      0.412038
     63 O10        -6.7480   -3.5850    0.1910 o         1 MOL     -0.553691
     64 C21        -5.7310   -1.9590   -2.1990 c3        1 MOL     -0.255548
     65 C22        -4.2800   -2.3450   -1.9790 c         1 MOL      0.453755
     66 N7         -3.6710   -2.8720   -3.0720 n         1 MOL     -0.663624
     67 O11        -3.6590   -2.1960   -0.9180 o         1 MOL     -0.369519
     68 H28        -5.3230    0.3750   -1.3240 hn        1 MOL      0.248875
     69 H29        -7.4720   -1.3940   -0.9380 h1        1 MOL      0.124453
     70 H30        -5.9020   -1.3250   -3.0620 hc        1 MOL      0.113185
     71 H31        -6.2100   -2.9160   -2.3900 hc        1 MOL      0.113185
     72 H32        -4.2820   -3.0850   -3.8450 hn        1 MOL      0.325795
     73 H33        -2.6960   -3.0850   -3.1820 hn        1 MOL      0.325795
     74 N8         -5.7250   -1.9190    1.4130 n         1 MOL     -0.127473
     75 C23        -5.7490   -2.6300    2.7500 c3        1 MOL     -0.319177
     76 C24        -4.3400   -2.9880    3.1850 c         1 MOL      0.624444
     77 O12        -4.1350   -3.3280    4.3740 o         1 MOL     -0.596142
     78 H34        -5.2290   -1.0430    1.4000 hn        1 MOL      0.269558
     79 H35        -6.2810   -3.5850    2.7140 h1        1 MOL      0.146741
     80 H36        -6.1830   -1.9130    3.4340 h1        1 MOL      0.146741
     81 N9         -3.3700   -2.9310    2.2810 n         1 MOL     -0.368359
     82 C25        -1.9840   -3.4120    2.5840 c3        1 MOL     -0.066760
     83 C26        -0.9020   -2.6850    1.7890 c         1 MOL      0.729083
     84 O13        -1.1510   -2.1190    0.6900 o         1 MOL     -0.782620
     85 C27        -1.9470   -4.8880    2.4500 c3        1 MOL     -0.049867
     86 C28        -2.2620   -5.3040    1.0380 ca        1 MOL     -0.006184
     87 C29        -1.2340   -5.6780    0.0470 ca        1 MOL     -0.150128
     88 C30        -3.6290   -5.4420    0.7670 ca        1 MOL     -0.150128
     89 C31        -1.7100   -6.0370   -1.2510 ca        1 MOL     -0.283862
     90 C32        -4.0260   -5.9270   -0.5710 ca        1 MOL     -0.283862
     91 C33        -3.0690   -6.1190   -1.5920 ca        1 MOL      0.418640
     92 O14        -3.4930   -6.5120   -2.7940 oh        1 MOL     -0.566225
     93 H37        -3.6350   -2.7540    1.3220 hn        1 MOL      0.322896
     94 H38        -1.7780   -3.1210    3.6090 h1        1 MOL      0.083997
     95 H39        -2.5940   -5.3910    3.1680 hc        1 MOL      0.056610
     96 H40        -0.9220   -5.1020    2.7680 hc        1 MOL      0.056610
     97 H41        -0.1790   -5.6370    0.2390 ha        1 MOL      0.146182
     98 H42        -4.4600   -5.1650    1.4090 ha        1 MOL      0.146182
     99 H43        -0.9910   -6.3170   -2.0150 ha        1 MOL      0.136723
    100 H44        -5.0690   -6.1010   -0.7780 ha        1 MOL      0.136723
    101 H45        -4.4540   -6.5760   -2.8240 ho        1 MOL      0.414308
    102 N10         0.4000   -2.8170    2.2590 n         1 MOL     -0.523450
    103 C34         1.5690   -2.1700    1.6770 c3        1 MOL      0.175076
    104 C35         2.6430   -3.2060    1.3360 c         1 MOL      0.355300
    105 O15         2.8620   -4.2670    1.9730 o         1 MOL     -0.531354
    106 C36         2.2190   -1.1290    2.6790 c3        1 MOL     -0.042703
    107 C37         2.4750   -1.6930    4.1190 c3        1 MOL     -0.061341
    108 C38         1.4690    0.1850    2.8620 c3        1 MOL     -0.249432
    109 C39         3.3210   -0.7080    4.9950 c3        1 MOL      0.026766
    110 H46         0.6080   -3.3420    3.1020 hn        1 MOL      0.296309
    111 H47         1.3140   -1.6330    0.7670 h1        1 MOL      0.038161
    112 H48         3.2030   -0.8410    2.3110 hc        1 MOL      0.039801
    113 H49         3.0540   -2.6160    4.0800 hc        1 MOL      0.024780
    114 H50         1.5310   -1.9180    4.6260 hc        1 MOL      0.024780
    115 H51         0.6870    0.0810    3.6110 hc        1 MOL      0.102226
    116 H52         2.1840    0.9520    3.1600 hc        1 MOL      0.102226
    117 H53         0.9060    0.4990    1.9800 hc        1 MOL      0.102226
    118 H54         2.7110    0.1550    5.2650 hc        1 MOL     -0.004384
    119 H55         3.6510   -1.1160    5.9420 hc        1 MOL     -0.004384
    120 H56         4.2100   -0.3400    4.4960 hc        1 MOL     -0.004384
    121 N11         3.4480   -2.8860    0.2910 n         1 MOL     -0.192582
    122 C40         4.7110   -3.5780   -0.1750 c3        1 MOL      0.056325
    123 C41         5.9030   -2.7300    0.2390 c         1 MOL      0.500900
    124 O16         5.7810   -1.5920    0.6710 o         1 MOL     -0.462769
    125 C42         4.6060   -3.7780   -1.7280 c3        1 MOL     -0.132093
    126 O17         4.9590   -2.5090   -2.3110 oh        1 MOL     -0.437365
    127 H57         3.1510   -2.1050   -0.2770 hn        1 MOL      0.164511
    128 H58         4.7230   -4.5770    0.2480 h1        1 MOL      0.065757
    129 H59         3.5850   -4.0650   -1.9890 h1        1 MOL      0.101189
    130 H60         5.3480   -4.5160   -2.0450 h1        1 MOL      0.101189
    131 H61         4.7460   -2.5030   -3.2480 ho        1 MOL      0.373491
    132 N12         7.1010   -3.2350   -0.0960 n         1 MOL     -0.507044
    133 C43         8.3230   -2.4700    0.1030 c3        1 MOL      0.192373
    134 C44         8.4580   -1.1810   -0.7240 c         1 MOL      0.470958
    135 O18         8.8880   -0.1880   -0.1680 o         1 MOL     -0.517355
    136 C45         9.4520   -3.5410   -0.1020 c3        1 MOL     -0.402259
    137 H62         7.0900   -4.1630   -0.5020 hn        1 MOL      0.304796
    138 H63         8.4000   -2.1070    1.1310 h1        1 MOL      0.083780
    139 H64         9.2290   -4.3540    0.5950 hc        1 MOL      0.114917
    140 H65         9.5190   -3.9940   -1.0920 hc        1 MOL      0.114917
    141 H66        10.4350   -3.0930    0.0670 hc        1 MOL      0.114917
    142 N13         8.0620   -1.1810   -2.0090 n         1 MOL     -0.349113
    143 C46         7.9760    0.0330   -2.7610 c3        1 MOL      0.114028
    144 C47         7.0500    1.1210   -2.1700 c         1 MOL      0.380346
    145 O19         7.4550    2.2840   -2.1890 o         1 MOL     -0.533991
    146 C48         7.5100   -0.4730   -4.0840 c3        1 MOL     -0.198952
    147 H67         7.6860   -2.0510   -2.3250 hn        1 MOL      0.218565
    148 H68         9.0210    0.3040   -2.8730 h1        1 MOL      0.091825
    149 H69         6.5780   -0.9810   -3.8270 hc        1 MOL      0.050167
    150 H70         7.2340    0.3190   -4.7840 hc        1 MOL      0.050167
    151 H71         8.2190   -1.2040   -4.4690 hc        1 MOL      0.050167
    152 N14         5.9550    0.7960   -1.4540 n         1 MOL     -0.077976
    153 C49         5.1080    1.7340   -0.7420 c3        1 MOL     -0.160471
    154 C50         5.7090    2.2690    0.5710 c         1 MOL      0.441416
    155 O20         5.3100    3.3580    1.0330 o         1 MOL     -0.596816
    156 C51         3.7060    1.0260   -0.5350 c3        1 MOL      0.193772
    157 C52         3.0050    0.6660   -1.8360 c3        1 MOL     -0.216232
    158 C53         1.7370   -0.1310   -1.5410 c         1 MOL      0.921885
    159 O21         1.7130   -1.3700   -1.5430 o         1 MOL     -0.771506
    160 O22         0.6670    0.5090   -1.4220 o         1 MOL     -0.771506
    161 H72         5.6470   -0.1570   -1.5170 hn        1 MOL      0.152114
    162 H73         4.9540    2.6220   -1.3580 h1        1 MOL      0.109466
    163 H74         3.0480    1.6420    0.0740 hc        1 MOL     -0.016167
    164 H75         3.8730    0.1360    0.0700 hc        1 MOL     -0.016167
    165 H76         3.6110    0.0180   -2.4610 hc        1 MOL     -0.001809
    166 H77         2.9230    1.5950   -2.3960 hc        1 MOL     -0.001809
    167 N15         6.7330    1.5750    1.0970 n         1 MOL     -0.001708
    168 C54         7.4560    1.9980    2.2280 c3        1 MOL     -0.300443
    169 H78         7.4350    3.0860    2.2850 h1        1 MOL      0.109114
    170 H79         7.0030    1.5780    3.1260 h1        1 MOL      0.109114
    171 H80         8.4880    1.6580    2.1480 h1        1 MOL      0.109114
    172 H81         6.8400    0.6660    0.6630 hn        1 MOL      0.103909
    173 Ca1        -1.6990   -0.5670   -1.4000 Ca        1 MOL      1.761047
    174 O23        -0.4170   -2.9290   -1.7820 oh        1 MOL     -0.849134
    175 H82        -0.3850   -3.6880   -1.2140 ho        1 MOL      0.420171
    176 H83         0.4710   -2.5890   -1.7800 ho        1 MOL      0.420171
    177 O24        -1.1150   -0.9500   -3.9730 oh        1 MOL     -0.849134
    178 H84        -0.5320   -0.2780   -4.3300 ho        1 MOL      0.420171
    179 H85        -1.5410   -1.3190   -4.7430 ho        1 MOL      0.420171
@<TRIPOS>BOND
     1    1    2 1   
     2    1    4 1   
     3    1    5 1   
     4    1    6 1   
     5    2    3 2   
     6    2    7 1   
     7    7    8 1   
     8    7   15 1   
     9    8    9 1   
    10    8   11 1   
    11    8   16 1   
    12    9   10 2   
    13    9   19 1   
    14   11   12 1   
    15   11   17 1   
    16   11   18 1   
    17   12   13 1   
    18   12   14 1   
    19   19   20 1   
    20   19   28 1   
    21   20   21 1   
    22   20   23 1   
    23   20   29 1   
    24   21   22 2   
    25   21   41 1   
    26   23   24 1   
    27   23   30 1   
    28   23   31 1   
    29   24   25 1   
    30   24   32 1   
    31   24   33 1   
    32   25   26 1   
    33   25   34 1   
    34   25   35 1   
    35   26   27 1   
    36   26   36 1   
    37   26   37 1   
    38   27   38 1   
    39   27   39 1   
    40   27   40 1   
    41   41   42 1   
    42   41   49 1   
    43   42   43 1   
    44   42   45 1   
    45   42   50 1   
    46   43   44 2   
    47   43   53 1   
    48   45   46 1   
    49   45   51 1   
    50   45   52 1   
    51   46   47 1   
    52   46   48 1   
    53   53   54 1   
    54   53   57 1   
    55   54   55 1   
    56   54   58 1   
    57   54   59 1   
    58   55   56 2   
    59   55   60 1   
    60   60   61 1   
    61   60   68 1   
    62   61   62 1   
    63   61   64 1   
    64   61   69 1   
    65   62   63 2   
    66   62   74 1   
    67   64   65 1   
    68   64   70 1   
    69   64   71 1   
    70   65   66 1   
    71   65   67 2   
    72   66   72 1   
    73   66   73 1   
    74   74   75 1   
    75   74   78 1   
    76   75   76 1   
    77   75   79 1   
    78   75   80 1   
    79   76   77 2   
    80   76   81 1   
    81   81   82 1   
    82   81   93 1   
    83   82   83 1   
    84   82   85 1   
    85   82   94 1   
    86   83   84 2   
    87   83  102 1   
    88   85   86 1   
    89   85   95 1   
    90   85   96 1   
    91   86   87 ar  
    92   86   88 ar  
    93   87   89 ar  
    94   87   97 1   
    95   88   90 ar  
    96   88   98 1   
    97   89   91 ar  
    98   89   99 1   
    99   90   91 ar  
   100   90  100 1   
   101   91   92 1   
   102   92  101 1   
   103  102  103 1   
   104  102  110 1   
   105  103  104 1   
   106  103  106 1   
   107  103  111 1   
   108  104  105 2   
   109  104  121 1   
   110  106  107 1   
   111  106  108 1   
   112  106  112 1   
   113  107  109 1   
   114  107  113 1   
   115  107  114 1   
   116  108  115 1   
   117  108  116 1   
   118  108  117 1   
   119  109  118 1   
   120  109  119 1   
   121  109  120 1   
   122  121  122 1   
   123  121  127 1   
   124  122  123 1   
   125  122  125 1   
   126  122  128 1   
   127  123  124 2   
   128  123  132 1   
   129  125  126 1   
   130  125  129 1   
   131  125  130 1   
   132  126  131 1   
   133  132  133 1   
   134  132  137 1   
   135  133  134 1   
   136  133  136 1   
   137  133  138 1   
   138  134  135 2   
   139  134  142 1   
   140  136  139 1   
   141  136  140 1   
   142  136  141 1   
   143  142  143 1   
   144  142  147 1   
   145  143  144 1   
   146  143  146 1   
   147  143  148 1   
   148  144  145 2   
   149  144  152 1   
   150  146  149 1   
   151  146  150 1   
   152  146  151 1   
   153  152  153 1   
   154  152  161 1   
   155  153  154 1   
   156  153  156 1   
   157  153  162 1   
   158  154  155 2   
   159  154  167 1   
   160  156  157 1   
   161  156  163 1   
   162  156  164 1   
   163  157  158 1   
   164  157  165 1   
   165  157  166 1   
   166  158  159 1   
   167  158  160 1   
   168  167  168 1   
   169  167  172 1   
   170  168  169 1   
   171  168  170 1   
   172  168  171 1   
   173  174  175 1   
   174  174  176 1   
   175  177  178 1   
   176  177  179 1   
@<TRIPOS>SUBSTRUCTURE
     1 MOL         1 TEMP              0 ****  ****    0 ROOT
