@<TRIPOS>MOLECULE
MOL
  189   185     1     0     0
SMALL
resp


@<TRIPOS>ATOM
      1 C1          0.2180    3.2700    5.6620 c3        1 MOL     -0.277369
      2 C2         -0.5670    2.9530    4.3950 c         1 MOL      0.653755
      3 O1         -0.7510    1.7400    4.0840 o         1 MOL     -0.611650
      4 H1         -0.0110    4.2850    5.9860 hc        1 MOL      0.072082
      5 H2         -0.0590    2.5670    6.4480 hc        1 MOL      0.072082
      6 H3          1.2850    3.1860    5.4590 hc        1 MOL      0.072082
      7 N1         -1.0970    3.9430    3.7220 n         1 MOL     -0.538933
      8 C3         -1.9000    3.6650    2.5950 c3        1 MOL      0.190281
      9 C4         -1.9740    4.8510    1.5610 c         1 MOL      0.504054
     10 O2         -1.9700    5.9890    1.9350 o         1 MOL     -0.566079
     11 C5         -3.3310    3.2800    3.0150 c3        1 MOL     -0.365744
     12 C6         -4.2520    2.7040    1.9490 c         1 MOL      0.747141
     13 O3         -5.4640    2.6330    2.1590 o         1 MOL     -0.693706
     14 O4         -3.8040    2.2400    0.8580 o         1 MOL     -0.693706
     15 H4         -0.9360    4.8670    4.0990 hn        1 MOL      0.317255
     16 H5         -1.6770    2.7280    2.1000 h1        1 MOL      0.089008
     17 H6         -3.7840    4.2170    3.3630 hc        1 MOL      0.080238
     18 H7         -3.2650    2.5760    3.8470 hc        1 MOL      0.080238
     19 N2         -2.0210    4.5310    0.2750 n         1 MOL     -0.156419
     20 C7         -2.2370    5.5070   -0.8020 c3        1 MOL     -0.421274
     21 C8         -3.3850    5.1390   -1.7490 c         1 MOL      0.642316
     22 O5         -3.8580    6.0250   -2.4920 o         1 MOL     -0.603106
     23 C9         -0.9420    5.9930   -1.4090 c3        1 MOL      0.358877
     24 C10        -0.1520    4.8640   -2.0830 c3        1 MOL      0.080713
     25 C11        -0.1540    6.8030   -0.4120 c3        1 MOL     -0.350317
     26 C12         1.1200    5.3890   -2.7540 c3        1 MOL     -0.181497
     27 H8         -1.8400    3.5590    0.0580 hn        1 MOL      0.159271
     28 H9         -2.7120    6.3260   -0.2540 h1        1 MOL      0.167382
     29 H10        -1.1810    6.6990   -2.2030 hc        1 MOL     -0.043165
     30 H11        -0.7710    4.5020   -2.8980 hc        1 MOL      0.008401
     31 H12         0.1350    4.0640   -1.3990 hc        1 MOL      0.008401
     32 H13         0.5630    7.3610   -1.0150 hc        1 MOL      0.072646
     33 H14        -0.8510    7.4070    0.1620 hc        1 MOL      0.072646
     34 H15         0.3850    6.1590    0.2970 hc        1 MOL      0.072646
     35 H16         0.8120    6.2240   -3.3810 hc        1 MOL      0.028563
     36 H17         1.8000    5.8030   -2.0100 hc        1 MOL      0.028563
     37 H18         1.5330    4.6280   -3.4150 hc        1 MOL      0.028563
     38 N3         -3.9100    3.9190   -1.7310 n         1 MOL     -0.502109
     39 C13        -4.7340    3.4110   -2.8320 c3        1 MOL      0.010882
     40 C14        -5.9080    2.6280   -2.4040 c         1 MOL      0.412510
     41 O6         -6.5390    2.0870   -3.3040 o         1 MOL     -0.547972
     42 C15        -3.8700    2.6490   -3.8620 c3        1 MOL     -0.173289
     43 C16        -3.0790    1.4590   -3.2350 c         1 MOL      0.723376
     44 O7         -3.3160    1.0890   -2.0370 o         1 MOL     -0.695323
     45 O8         -2.2690    0.8710   -3.9670 o         1 MOL     -0.695323
     46 H19        -3.5590    3.1850   -1.1340 hn        1 MOL      0.329098
     47 H20        -5.1750    4.2410   -3.3820 h1        1 MOL      0.105224
     48 H21        -3.1560    3.3520   -4.2940 hc        1 MOL      0.059046
     49 H22        -4.4910    2.2770   -4.6790 hc        1 MOL      0.059046
     50 N4         -6.1420    2.4370   -1.1100 n         1 MOL     -0.177347
     51 C17        -7.4700    1.8710   -0.6420 c3        1 MOL     -0.193469
     52 C18        -7.8000    0.3540   -1.0960 c         1 MOL      0.480232
     53 O9         -8.9030   -0.2210   -0.9520 o         1 MOL     -0.588803
     54 H23        -5.5290    2.8820   -0.4420 hn        1 MOL      0.189354
     55 H24        -8.2560    2.5560   -0.9500 h1        1 MOL      0.104569
     56 H25        -7.3980    1.8800    0.4410 h1        1 MOL      0.104569
     57 N5         -6.8060   -0.4520   -1.5310 n         1 MOL     -0.182792
     58 C19        -7.1010   -1.8730   -1.8740 c3        1 MOL     -0.010493
     59 C20        -7.3280   -2.7890   -0.6300 c         1 MOL      0.418132
     60 O10        -7.8550   -3.9380   -0.8620 o         1 MOL     -0.583279
     61 C21        -6.1170   -2.4290   -2.8720 c3        1 MOL     -0.261418
     62 C22        -4.6390   -2.2140   -2.4380 c         1 MOL      0.851064
     63 O11        -4.3570   -1.8350   -1.3100 o         1 MOL     -0.731124
     64 O12        -3.7830   -2.4980   -3.2830 o         1 MOL     -0.731124
     65 H26        -5.8480   -0.2890   -1.2690 hn        1 MOL      0.134647
     66 H27        -8.0630   -1.9340   -2.3810 h1        1 MOL      0.122978
     67 H28        -6.3070   -1.8970   -3.8010 hc        1 MOL      0.067917
     68 H29        -6.1330   -3.5110   -3.0420 hc        1 MOL      0.067917
     69 N6         -6.9450   -2.5170    0.6020 n         1 MOL     -0.159334
     70 C23        -7.1780   -3.4090    1.7890 c3        1 MOL     -0.026802
     71 C24        -5.9290   -4.1480    2.2380 c         1 MOL      0.504928
     72 O13        -5.9850   -5.0690    3.0460 o         1 MOL     -0.575117
     73 H30        -6.4270   -1.6670    0.7660 hn        1 MOL      0.153031
     74 H31        -8.0540   -4.0270    1.6130 h1        1 MOL      0.061585
     75 H32        -7.5750   -2.8200    2.6100 h1        1 MOL      0.061585
     76 N7         -4.7790   -3.8440    1.6140 n         1 MOL     -0.416307
     77 C25        -3.4740   -4.5590    1.6700 c3        1 MOL      0.092444
     78 C26        -2.3540   -3.4760    1.6350 c         1 MOL      0.653352
     79 O14        -2.4860   -2.4210    1.0640 o         1 MOL     -0.642124
     80 C27        -3.4080   -5.5140    0.4460 c3        1 MOL     -0.178389
     81 C28        -3.4700   -4.9450   -0.9720 c3        1 MOL     -0.129022
     82 C29        -3.2230   -5.8170   -2.2480 c         1 MOL      0.623921
     83 N8         -3.6590   -5.3000   -3.3880 n         1 MOL     -0.768004
     84 O15        -2.7060   -6.8790   -2.2020 o         1 MOL     -0.583174
     85 H33        -4.9050   -3.1050    0.9400 hn        1 MOL      0.278935
     86 H34        -3.3690   -5.0680    2.6330 h1        1 MOL      0.035930
     87 H35        -4.2420   -6.2150    0.5910 hc        1 MOL      0.069505
     88 H36        -2.5080   -6.1260    0.5670 hc        1 MOL      0.069505
     89 H37        -2.9020   -4.0240   -1.0690 hc        1 MOL      0.085472
     90 H38        -4.5130   -4.6490   -1.0750 hc        1 MOL      0.085472
     91 H39        -3.8100   -4.3060   -3.3700 hn        1 MOL      0.341354
     92 H40        -3.3610   -5.6400   -4.2950 hn        1 MOL      0.341354
     93 N9         -1.2630   -3.8140    2.3120 n         1 MOL     -0.619744
     94 C30        -0.0770   -2.9510    2.4090 c3        1 MOL     -0.060563
     95 C31         0.9540   -3.3450    1.3820 c         1 MOL      0.702275
     96 O16         1.3730   -4.4940    1.1960 o         1 MOL     -0.605709
     97 C32         0.4230   -2.8190    3.8390 c3        1 MOL      0.226112
     98 C33         1.1030   -4.0670    4.2600 c3        1 MOL     -0.251953
     99 C34         1.2850   -1.5740    3.8720 c3        1 MOL     -0.251953
    100 H41        -1.2970   -4.7910    2.5290 hn        1 MOL      0.326770
    101 H42        -0.5130   -1.9690    2.2460 h1        1 MOL      0.212485
    102 H43        -0.4320   -2.5990    4.4780 hc        1 MOL     -0.004102
    103 H44         1.3240   -4.0380    5.3290 hc        1 MOL      0.046279
    104 H45         0.3910   -4.8890    4.2400 hc        1 MOL      0.046279
    105 H46         2.0010   -4.2460    3.6800 hc        1 MOL      0.046279
    106 H47         0.8750   -0.6350    3.5280 hc        1 MOL      0.046279
    107 H48         1.6400   -1.3990    4.8900 hc        1 MOL      0.046279
    108 H49         2.0900   -1.7370    3.1610 hc        1 MOL      0.046279
    109 N10         1.3130   -2.3120    0.6010 n         1 MOL     -0.319028
    110 C35         2.2840   -2.3320   -0.4970 c3        1 MOL      0.080267
    111 C36         3.6750   -1.9290    0.0430 c         1 MOL      0.137883
    112 O17         3.8270   -0.9530    0.7960 o         1 MOL     -0.089878
    113 C37         1.7760   -1.3700   -1.6330 c3        1 MOL     -0.080376
    114 C38         2.9630   -1.0140   -2.5110 c         1 MOL      0.533322
    115 N11         3.3830   -1.8420   -3.4700 n         1 MOL     -0.701147
    116 O18         3.6190   -0.0100   -2.3350 o         1 MOL     -0.434383
    117 H50         0.9100   -1.4150    0.8290 hn        1 MOL      0.144331
    118 H51         2.3930   -3.3290   -0.9240 h1        1 MOL      0.044303
    119 H52         1.4280   -0.4360   -1.1820 hc        1 MOL      0.043843
    120 H53         0.9100   -1.7740   -2.1550 hc        1 MOL      0.043843
    121 H54         2.8660   -2.7120   -3.4340 hn        1 MOL      0.330952
    122 H55         4.2780   -1.7350   -3.9130 hn        1 MOL      0.330952
    123 N12         4.7210   -2.4830   -0.5660 n         1 MOL     -0.373237
    124 C39         6.1740   -2.1840   -0.2590 c3        1 MOL      0.365270
    125 C40         6.4590   -0.6540   -0.0270 c         1 MOL      0.532855
    126 O19         7.2270   -0.3680    0.8870 o         1 MOL     -0.556770
    127 C41         6.9900   -2.7790   -1.4400 c3        1 MOL     -0.365581
    128 C42         8.4850   -2.6650   -1.4130 ca        1 MOL      0.221105
    129 C43         9.1960   -3.1500   -0.2320 ca        1 MOL     -0.292877
    130 C44         9.2070   -2.2500   -2.5120 ca        1 MOL     -0.292877
    131 C45        10.5860   -3.0440   -0.1970 ca        1 MOL     -0.153588
    132 C46        10.5920   -2.3860   -2.5140 ca        1 MOL     -0.153588
    133 C47        11.3340   -2.6940   -1.3180 ca        1 MOL      0.272947
    134 O20        12.7390   -2.7090   -1.2160 oh        1 MOL     -0.503414
    135 H56         4.5280   -3.2010   -1.2490 hn        1 MOL      0.221951
    136 H57         6.4420   -2.6920    0.6660 h1        1 MOL     -0.026084
    137 H58         6.6720   -2.2270   -2.3170 hc        1 MOL      0.087362
    138 H59         6.7560   -3.8120   -1.7070 hc        1 MOL      0.087362
    139 H60         8.7160   -3.4330    0.7040 ha        1 MOL      0.171785
    140 H61         8.7720   -1.8440   -3.4080 ha        1 MOL      0.171785
    141 H62        11.1270   -3.3860    0.6730 ha        1 MOL      0.115258
    142 H63        11.2120   -2.1740   -3.3690 ha        1 MOL      0.115258
    143 H64        13.1190   -2.6030   -2.0950 ho        1 MOL      0.358175
    144 N13         5.8690    0.3480   -0.7390 n         1 MOL     -0.016791
    145 C48         6.2760    1.7370   -0.5230 c3        1 MOL     -0.046089
    146 C49         5.3690    2.5020    0.4360 c         1 MOL      0.358785
    147 O21         5.7170    3.6020    0.9100 o         1 MOL     -0.512205
    148 C50         6.5450    2.5300   -1.8310 c3        1 MOL     -0.039816
    149 C51         7.7090    1.9220   -2.5710 c3        1 MOL      0.099967
    150 C52         9.1030    2.2960   -2.0470 c         1 MOL      0.634080
    151 O22         9.1280    3.2380   -1.1290 o         1 MOL     -0.713391
    152 O23        10.1090    1.7900   -2.6370 o         1 MOL     -0.713391
    153 H65         5.3360    0.0920   -1.5620 hn        1 MOL      0.071249
    154 H66         7.2640    1.7380   -0.0680 h1        1 MOL      0.096078
    155 H67         6.7110    3.5950   -1.7030 hc        1 MOL      0.026538
    156 H68         5.6570    2.4050   -2.4720 hc        1 MOL      0.026538
    157 H69         7.6220    2.2910   -3.5910 hc        1 MOL     -0.094768
    158 H70         7.6240    0.8370   -2.5900 hc        1 MOL     -0.094768
    159 N14         4.2320    1.9260    0.8340 n         1 MOL     -0.138963
    160 C53         3.5740    2.1180    2.1740 c3        1 MOL     -0.149493
    161 C54         4.3710    1.4760    3.3060 c         1 MOL      0.602112
    162 O24         4.5490    2.1300    4.3330 o         1 MOL     -0.601072
    163 C55         2.1530    1.5260    2.0960 c3        1 MOL     -0.076991
    164 C56         1.3080    2.0620    0.8710 c3        1 MOL      0.136288
    165 C57         0.1440    1.1430    0.5500 c         1 MOL      0.940276
    166 O25        -0.8130    1.6930   -0.0320 o         1 MOL     -0.888872
    167 O26        -0.0750    0.0340    1.0740 o         1 MOL     -0.888872
    168 H71         4.0680    1.0450    0.3540 hn        1 MOL     -0.033081
    169 H72         3.3910    3.1810    2.3580 h1        1 MOL      0.094732
    170 H73         1.6940    1.6470    3.0790 hc        1 MOL      0.054747
    171 H74         2.1890    0.4480    1.9480 hc        1 MOL      0.054747
    172 H75         1.8490    2.2030   -0.0600 hc        1 MOL     -0.038377
    173 H76         0.9660    3.0340    1.2270 hc        1 MOL     -0.038377
    174 N15         4.9440    0.2770    3.1840 n         1 MOL     -0.085942
    175 C58         5.4800   -0.5610    4.2940 c3        1 MOL     -0.259162
    176 H77         5.8080   -1.5220    3.8970 h1        1 MOL      0.098935
    177 H78         6.3250   -0.0520    4.7590 h1        1 MOL      0.098935
    178 H79         4.7000   -0.7230    5.0380 h1        1 MOL      0.098935
    179 H80         4.7260   -0.1190    2.2780 hn        1 MOL     -0.051353
    180 Ca1        -2.7710   -0.0530    0.0630 Ca        1 MOL      1.792158
    181 O27        -2.6410    0.1850    2.8220 oh        1 MOL     -0.889095
    182 H81        -1.9140    0.7970    2.8820 ho        1 MOL      0.432274
    183 H82        -2.7650   -0.1490    3.7020 ho        1 MOL      0.432274
    184 O28        -1.7320   -1.2110   -2.1310 oh        1 MOL     -0.889095
    185 H83        -1.6860   -0.4890   -2.7640 ho        1 MOL      0.432274
    186 H84        -2.4600   -1.7520   -2.4430 ho        1 MOL      0.432274
    187 O29        -5.2930    0.0020    1.1920 oh        1 MOL     -0.889095
    188 H85        -5.3470    0.9470    1.0790 ho        1 MOL      0.432274
    189 H86        -5.5740   -0.1640    2.0920 ho        1 MOL      0.432274
@<TRIPOS>BOND
     1    1    2 1   
     2    1    4 1   
     3    1    5 1   
     4    1    6 1   
     5    2    3 2   
     6    2    7 1   
     7    7    8 1   
     8    7   15 1   
     9    8    9 1   
    10    8   11 1   
    11    8   16 1   
    12    9   10 2   
    13    9   19 1   
    14   11   12 1   
    15   11   17 1   
    16   11   18 1   
    17   12   13 1   
    18   12   14 1   
    19   19   20 1   
    20   19   27 1   
    21   20   21 1   
    22   20   23 1   
    23   20   28 1   
    24   21   22 2   
    25   21   38 1   
    26   23   24 1   
    27   23   25 1   
    28   23   29 1   
    29   24   26 1   
    30   24   30 1   
    31   24   31 1   
    32   25   32 1   
    33   25   33 1   
    34   25   34 1   
    35   26   35 1   
    36   26   36 1   
    37   26   37 1   
    38   38   39 1   
    39   38   46 1   
    40   39   40 1   
    41   39   42 1   
    42   39   47 1   
    43   40   41 2   
    44   40   50 1   
    45   42   43 1   
    46   42   48 1   
    47   42   49 1   
    48   43   44 1   
    49   43   45 1   
    50   50   51 1   
    51   50   54 1   
    52   51   52 1   
    53   51   55 1   
    54   51   56 1   
    55   52   53 2   
    56   52   57 1   
    57   57   58 1   
    58   57   65 1   
    59   58   59 1   
    60   58   61 1   
    61   58   66 1   
    62   59   60 2   
    63   59   69 1   
    64   61   62 1   
    65   61   67 1   
    66   61   68 1   
    67   62   63 1   
    68   62   64 1   
    69   69   70 1   
    70   69   73 1   
    71   70   71 1   
    72   70   74 1   
    73   70   75 1   
    74   71   72 2   
    75   71   76 1   
    76   76   77 1   
    77   76   85 1   
    78   77   78 1   
    79   77   80 1   
    80   77   86 1   
    81   78   79 2   
    82   78   93 1   
    83   80   81 1   
    84   80   87 1   
    85   80   88 1   
    86   81   82 1   
    87   81   89 1   
    88   81   90 1   
    89   82   83 1   
    90   82   84 2   
    91   83   91 1   
    92   83   92 1   
    93   93   94 1   
    94   93  100 1   
    95   94   95 1   
    96   94   97 1   
    97   94  101 1   
    98   95   96 2   
    99   95  109 1   
   100   97   98 1   
   101   97   99 1   
   102   97  102 1   
   103   98  103 1   
   104   98  104 1   
   105   98  105 1   
   106   99  106 1   
   107   99  107 1   
   108   99  108 1   
   109  109  110 1   
   110  109  117 1   
   111  110  111 1   
   112  110  113 1   
   113  110  118 1   
   114  111  112 2   
   115  111  123 1   
   116  113  114 1   
   117  113  119 1   
   118  113  120 1   
   119  114  115 1   
   120  114  116 2   
   121  115  121 1   
   122  115  122 1   
   123  123  124 1   
   124  123  135 1   
   125  124  125 1   
   126  124  127 1   
   127  124  136 1   
   128  125  126 2   
   129  125  144 1   
   130  127  128 1   
   131  127  137 1   
   132  127  138 1   
   133  128  129 ar  
   134  128  130 ar  
   135  129  131 ar  
   136  129  139 1   
   137  130  132 ar  
   138  130  140 1   
   139  131  133 ar  
   140  131  141 1   
   141  132  133 ar  
   142  132  142 1   
   143  133  134 1   
   144  134  143 1   
   145  144  145 1   
   146  144  153 1   
   147  145  146 1   
   148  145  148 1   
   149  145  154 1   
   150  146  147 2   
   151  146  159 1   
   152  148  149 1   
   153  148  155 1   
   154  148  156 1   
   155  149  150 1   
   156  149  157 1   
   157  149  158 1   
   158  150  151 1   
   159  150  152 1   
   160  159  160 1   
   161  159  168 1   
   162  160  161 1   
   163  160  163 1   
   164  160  169 1   
   165  161  162 2   
   166  161  174 1   
   167  163  164 1   
   168  163  170 1   
   169  163  171 1   
   170  164  165 1   
   171  164  172 1   
   172  164  173 1   
   173  165  166 1   
   174  165  167 1   
   175  174  175 1   
   176  174  179 1   
   177  175  176 1   
   178  175  177 1   
   179  175  178 1   
   180  181  182 1   
   181  181  183 1   
   182  184  185 1   
   183  184  186 1   
   184  187  188 1   
   185  187  189 1   
@<TRIPOS>SUBSTRUCTURE
     1 MOL         1 TEMP              0 ****  ****    0 ROOT
