@<TRIPOS>MOLECULE
MOL
  189   185     1     0     0
SMALL
resp


@<TRIPOS>ATOM
      1 C1         -0.4620    3.6960   -4.5940 c3        1 MOL     -0.253912
      2 C2          0.2670    3.1050   -3.3490 c         1 MOL      0.548213
      3 O1         -0.3460    3.1010   -2.3230 o         1 MOL     -0.534666
      4 H1         -0.6810    2.8940   -5.3000 hc        1 MOL      0.060850
      5 H2         -1.3930    4.1690   -4.2800 hc        1 MOL      0.060850
      6 H3          0.1790    4.4360   -5.0730 hc        1 MOL      0.060850
      7 N1          1.5120    2.6500   -3.4490 n         1 MOL     -0.580520
      8 C3          2.2260    2.0130   -2.3160 c3        1 MOL      0.224962
      9 C4          2.9000    3.0470   -1.3850 c         1 MOL      0.477114
     10 O2          4.1080    3.2760   -1.4580 o         1 MOL     -0.491302
     11 C5          3.3190    0.9500   -2.7800 c3        1 MOL     -0.275305
     12 C6          4.0780    0.3520   -1.5150 c         1 MOL      0.691666
     13 O3          3.4990    0.3770   -0.4090 o         1 MOL     -0.621254
     14 O4          5.1470   -0.2580   -1.7010 o         1 MOL     -0.621254
     15 H4          1.8900    2.5580   -4.3780 hn        1 MOL      0.334664
     16 H5          1.4510    1.4470   -1.7820 h1        1 MOL     -0.040778
     17 H6          4.0710    1.3320   -3.4810 hc        1 MOL      0.060217
     18 H7          2.9250    0.0380   -3.2260 hc        1 MOL      0.060217
     19 N2          2.1030    3.7250   -0.5820 n         1 MOL     -0.357472
     20 C7          2.5430    4.9840    0.0550 c3        1 MOL     -0.124308
     21 C8          3.4350    4.8500    1.3080 c         1 MOL      0.603640
     22 O5          4.0350    5.8570    1.6340 o         1 MOL     -0.580988
     23 C9          1.3280    5.8420    0.2860 c3        1 MOL     -0.069226
     24 C10         0.9400    6.4830   -1.0160 c3        1 MOL      0.185581
     25 C11         0.1330    7.7760   -0.7600 c3        1 MOL     -0.108386
     26 C12        -0.3160    8.4790   -2.0400 c3        1 MOL     -0.007489
     27 N3         -1.5320    7.8750   -2.6840 n4        1 MOL     -0.374176
     28 H8          1.1200    3.5160   -0.4660 hn        1 MOL      0.328597
     29 H9          3.2480    5.4290   -0.6500 h1        1 MOL      0.111543
     30 H10         1.5680    6.6630    0.9630 hc        1 MOL      0.033885
     31 H11         0.4910    5.2780    0.6800 hc        1 MOL      0.033885
     32 H12         0.2710    5.8140   -1.5660 hc        1 MOL     -0.027840
     33 H13         1.8440    6.5640   -1.6140 hc        1 MOL     -0.027840
     34 H14         0.7350    8.5840   -0.3440 hc        1 MOL      0.065114
     35 H15        -0.6630    7.4890   -0.0900 hc        1 MOL      0.065114
     36 H16         0.5690    8.4360   -2.6760 hx        1 MOL      0.087467
     37 H17        -0.6270    9.5060   -1.8280 hx        1 MOL      0.087467
     38 H18        -1.1560    7.0160   -3.0700 hn        1 MOL      0.338151
     39 H19        -2.2360    7.6360   -2.0150 hn        1 MOL      0.338151
     40 H20        -1.8620    8.4320   -3.4620 hn        1 MOL      0.338151
     41 N4          3.6020    3.6100    1.7860 n         1 MOL     -0.372383
     42 C13         4.4790    3.2860    2.9320 c3        1 MOL      0.138749
     43 C14         5.6650    2.3260    2.5410 c         1 MOL      0.355971
     44 O6          6.5800    2.1770    3.3520 o         1 MOL     -0.503387
     45 C15         3.7270    2.8100    4.2090 c3        1 MOL     -0.415478
     46 C16         2.8990    1.5840    3.9220 c         1 MOL      0.977571
     47 O7          2.9750    0.9740    2.8060 o         1 MOL     -0.766370
     48 O8          2.0740    1.2220    4.7820 o         1 MOL     -0.766370
     49 H21         3.0210    2.9110    1.3510 hn        1 MOL      0.207774
     50 H22         4.9140    4.2510    3.2020 h1        1 MOL      0.069866
     51 H23         3.0740    3.6370    4.4710 hc        1 MOL      0.100262
     52 H24         4.4930    2.5160    4.9260 hc        1 MOL      0.100262
     53 N5          5.7300    1.8970    1.3130 n         1 MOL     -0.065341
     54 C17         7.0070    1.4250    0.6810 c3        1 MOL     -0.051977
     55 C18         7.3950    0.0490    1.1730 c         1 MOL      0.423337
     56 O9          8.5060   -0.0290    1.6790 o         1 MOL     -0.570818
     57 H25         4.9060    1.9020    0.7120 hn        1 MOL      0.030094
     58 H26         7.7400    2.2350    0.7060 h1        1 MOL      0.071235
     59 H27         6.7660    1.2670   -0.3750 h1        1 MOL      0.071235
     60 N6          6.5970   -0.9410    1.0710 n         1 MOL     -0.074836
     61 C19         6.9930   -2.3430    1.4040 c3        1 MOL      0.099065
     62 C20         6.8870   -3.2160    0.1950 c         1 MOL      0.253232
     63 O10         7.3610   -4.3690    0.3110 o         1 MOL     -0.520092
     64 C21         6.0290   -2.9140    2.4680 c3        1 MOL     -0.185352
     65 C22         4.6530   -2.3810    2.2510 c         1 MOL      0.724535
     66 O11         4.0260   -1.7990    3.1800 o         1 MOL     -0.706802
     67 O12         4.1090   -2.4170    1.1440 o         1 MOL     -0.706802
     68 H28         5.7380   -0.8010    0.5630 hn        1 MOL      0.074099
     69 H29         8.0180   -2.3430    1.7840 h1        1 MOL      0.096098
     70 H30         6.3600   -2.7230    3.4980 hc        1 MOL      0.057460
     71 H31         5.9920   -3.9960    2.3590 hc        1 MOL      0.057460
     72 N7          6.4760   -2.7480   -0.9500 n         1 MOL     -0.132552
     73 C23         6.4200   -3.5520   -2.1640 c3        1 MOL     -0.070602
     74 C24         5.0300   -4.0730   -2.4920 c         1 MOL      0.536630
     75 O13         4.8190   -4.8180   -3.4350 o         1 MOL     -0.574976
     76 H32         6.2930   -1.7580   -1.0710 hn        1 MOL      0.178093
     77 H33         6.9640   -4.4940   -2.1070 h1        1 MOL      0.081976
     78 H34         6.8340   -3.0450   -3.0330 h1        1 MOL      0.081976
     79 N8          3.9820   -3.5910   -1.7780 n         1 MOL     -0.271023
     80 C25         2.6270   -4.1890   -1.8100 c3        1 MOL     -0.308903
     81 C26         1.5750   -3.1040   -1.6040 c         1 MOL      0.782258
     82 O14         1.7890   -2.0960   -0.9250 o         1 MOL     -0.547919
     83 C27         2.4050   -5.3890   -0.7870 c3        1 MOL      0.654599
     84 C28         2.7200   -6.7540   -1.3890 c3        1 MOL     -0.531658
     85 O15         3.1430   -5.2150    0.4080 oh        1 MOL     -0.697025
     86 H35         4.1340   -2.8440   -1.1160 hn        1 MOL      0.153131
     87 H36         2.4380   -4.6750   -2.7650 h1        1 MOL      0.129601
     88 H37         1.3540   -5.4790   -0.4840 h1        1 MOL     -0.071764
     89 H38         3.4080   -4.2970    0.5230 ho        1 MOL      0.487487
     90 H39         2.3010   -6.8690   -2.3950 hc        1 MOL      0.128703
     91 H40         3.8020   -6.8740   -1.3550 hc        1 MOL      0.128703
     92 H41         2.3300   -7.4770   -0.6780 hc        1 MOL      0.128703
     93 N9          0.4310   -3.3490   -2.2580 n         1 MOL     -0.786818
     94 C29        -0.7900   -2.5880   -2.2160 c3        1 MOL      0.479014
     95 C30        -1.9090   -3.3080   -1.4610 c         1 MOL      0.299622
     96 O16        -2.1060   -4.4730   -1.7020 o         1 MOL     -0.533990
     97 C31        -1.2370   -2.0980   -3.6890 c3        1 MOL     -0.051110
     98 C32        -0.4090   -0.8470   -4.1090 c3        1 MOL      0.130098
     99 C33        -2.7170   -1.8230   -3.7560 c3        1 MOL     -0.069333
    100 C34        -0.3840   -0.8160   -5.6540 c3        1 MOL     -0.311016
    101 H42         0.3990   -4.2460   -2.7330 hn        1 MOL      0.308820
    102 H43        -0.5820   -1.6780   -1.6510 h1        1 MOL     -0.107441
    103 H44        -1.0270   -2.9490   -4.3380 hc        1 MOL      0.054537
    104 H45         0.6280   -0.9090   -3.7670 hc        1 MOL      0.044484
    105 H46        -0.8580    0.0400   -3.6700 hc        1 MOL      0.044484
    106 H47        -2.9550   -1.5860   -4.7910 hc        1 MOL     -0.008969
    107 H48        -3.2660   -2.7520   -3.5670 hc        1 MOL     -0.008969
    108 H49        -3.1340   -1.0980   -3.0680 hc        1 MOL     -0.008969
    109 H50         0.4670   -0.1730   -5.8980 hc        1 MOL      0.071585
    110 H51        -0.2830   -1.8130   -6.0990 hc        1 MOL      0.071585
    111 H52        -1.2320   -0.2320   -6.0060 hc        1 MOL      0.071585
    112 N10        -2.6250   -2.5920   -0.5930 n         1 MOL     -0.020437
    113 C35        -3.9050   -3.0540    0.0110 c3        1 MOL      0.023021
    114 C36        -5.1100   -2.4350   -0.6600 c         1 MOL      0.444933
    115 O17        -4.9400   -1.5040   -1.4470 o         1 MOL     -0.361929
    116 C37        -4.0060   -2.6880    1.4560 c3        1 MOL      0.061601
    117 C38        -2.7210   -2.9920    2.2770 c3        1 MOL     -0.406848
    118 O18        -4.2590   -1.3020    1.6080 oh        1 MOL     -0.390826
    119 H53        -2.2840   -1.6740   -0.3640 hn        1 MOL      0.098335
    120 H54        -3.9770   -4.1410   -0.0760 h1        1 MOL      0.062516
    121 H55        -4.8270   -3.2610    1.8960 h1        1 MOL      0.043553
    122 H56        -3.5930   -0.9010    2.1820 ho        1 MOL      0.404358
    123 H57        -2.5410   -4.0520    2.4510 hc        1 MOL      0.115790
    124 H58        -1.8590   -2.6520    1.7120 hc        1 MOL      0.115790
    125 H59        -2.6990   -2.4290    3.2090 hc        1 MOL      0.115790
    126 N11        -6.3190   -2.9380   -0.2510 n         1 MOL     -0.419330
    127 C39        -7.5160   -2.1760   -0.6270 c3        1 MOL     -0.216355
    128 C40        -7.6270   -0.6990   -0.2050 c         1 MOL      0.305211
    129 O19        -8.3220    0.0890   -0.8420 o         1 MOL     -0.483518
    130 C41        -8.8250   -2.7260   -0.0080 c3        1 MOL      0.429289
    131 C42        -9.2150   -4.1150   -0.5590 c3        1 MOL     -0.489366
    132 O20        -8.8840   -2.8020    1.4330 oh        1 MOL     -0.593513
    133 H60        -6.3870   -3.7200    0.3890 hn        1 MOL      0.322269
    134 H61        -7.5960   -2.2330   -1.7210 h1        1 MOL      0.163836
    135 H62        -9.6160   -2.0290   -0.2830 h1        1 MOL      0.029678
    136 H63        -9.1630   -1.9110    1.6610 ho        1 MOL      0.351472
    137 H64        -8.9980   -4.2030   -1.6230 hc        1 MOL      0.138963
    138 H65        -8.7180   -4.9360   -0.0420 hc        1 MOL      0.138963
    139 H66       -10.3000   -4.2320   -0.5290 hc        1 MOL      0.138963
    140 N12        -6.8710   -0.2230    0.8260 n         1 MOL     -0.119180
    141 C43        -6.7790    1.1680    1.2230 c3        1 MOL     -0.022161
    142 C44        -5.8100    1.8940    0.3390 c         1 MOL      0.254641
    143 O21        -6.0460    3.0780    0.0900 o         1 MOL     -0.502445
    144 C45        -6.2610    1.2990    2.7150 c3        1 MOL      0.167706
    145 C46        -7.2020    0.6200    3.7600 c3        1 MOL     -0.520041
    146 C47        -6.5200    0.7730    5.1550 c3        1 MOL      0.398438
    147 C48        -7.3190   -0.0100    6.2160 c3        1 MOL     -0.245351
    148 N13        -6.4380   -0.5020    7.3500 n4        1 MOL     -0.235438
    149 H67        -6.2730   -0.8810    1.3280 hn        1 MOL      0.144929
    150 H68        -7.7470    1.6520    1.0570 h1        1 MOL      0.125065
    151 H69        -6.2280    2.3480    3.0030 hc        1 MOL      0.003224
    152 H70        -5.3350    0.7640    2.8640 hc        1 MOL      0.003224
    153 H71        -7.2810   -0.4380    3.5300 hc        1 MOL      0.122319
    154 H72        -8.1220    1.2130    3.7490 hc        1 MOL      0.122319
    155 H73        -6.3510    1.8250    5.3840 hc        1 MOL     -0.043546
    156 H74        -5.4890    0.4420    5.0470 hc        1 MOL     -0.043546
    157 H75        -7.6780   -0.9400    5.7540 hx        1 MOL      0.154570
    158 H76        -8.0820    0.6890    6.5470 hx        1 MOL      0.154570
    159 H77        -6.2200    0.2840    7.9420 hn        1 MOL      0.268369
    160 H78        -6.9180   -1.1700    7.9310 hn        1 MOL      0.268369
    161 H79        -5.5990   -0.9620    7.0160 hn        1 MOL      0.268369
    162 N14        -4.7400    1.2390   -0.1360 n         1 MOL     -0.006646
    163 C49        -3.7860    1.9400   -0.9880 c3        1 MOL     -0.240494
    164 C50        -4.3560    2.1510   -2.4060 c         1 MOL      0.499012
    165 O22        -3.8480    3.0040   -3.0370 o         1 MOL     -0.535290
    166 C51        -2.4650    1.1840   -1.0210 c3        1 MOL      0.019138
    167 C52        -1.6280    1.6890    0.1370 c3        1 MOL     -0.075693
    168 C53        -0.4290    0.7930    0.4220 c         1 MOL      0.662002
    169 O23         0.5850    1.3680    0.8950 o         1 MOL     -0.703883
    170 O24        -0.5440   -0.4730    0.4560 o         1 MOL     -0.703883
    171 H80        -4.5260    0.2800    0.0990 hn        1 MOL      0.033624
    172 H81        -3.5390    2.9200   -0.5840 h1        1 MOL      0.131623
    173 H82        -1.8970    1.3690   -1.9320 hc        1 MOL      0.054627
    174 H83        -2.6810    0.1210   -1.0420 hc        1 MOL      0.054627
    175 H84        -2.2150    1.6500    1.0510 hc        1 MOL      0.005243
    176 H85        -1.3950    2.7310   -0.0470 hc        1 MOL      0.005243
    177 N15        -5.4290    1.4160   -2.8340 n         1 MOL     -0.117366
    178 C54        -6.1780    1.6680   -4.0510 c3        1 MOL     -0.381229
    179 H86        -5.7510    1.0850   -4.8670 h1        1 MOL      0.129914
    180 H87        -7.2190    1.3800   -3.9040 h1        1 MOL      0.129914
    181 H88        -6.1260    2.7290   -4.2970 h1        1 MOL      0.129914
    182 H89        -5.6640    0.5470   -2.3900 hn        1 MOL      0.224520
    183 Ca1         1.9760   -0.8490    1.4070 Ca        1 MOL      1.747899
    184 O25         1.1500   -3.3190    1.7100 oh        1 MOL     -0.902608
    185 H90         1.3760   -3.9110    2.4320 ho        1 MOL      0.409804
    186 H91         0.2020   -3.4010    1.6110 ho        1 MOL      0.409804
    187 O26         0.5970   -0.7510    3.7190 oh        1 MOL     -0.902608
    188 H92         1.1480   -0.2050    4.2750 ho        1 MOL      0.409804
    189 H93         0.0500   -1.2430    4.3360 ho        1 MOL      0.409804
@<TRIPOS>BOND
     1    1    2 1   
     2    1    4 1   
     3    1    5 1   
     4    1    6 1   
     5    2    3 2   
     6    2    7 1   
     7    7    8 1   
     8    7   15 1   
     9    8    9 1   
    10    8   11 1   
    11    8   16 1   
    12    9   10 2   
    13    9   19 1   
    14   11   12 1   
    15   11   17 1   
    16   11   18 1   
    17   12   13 1   
    18   12   14 1   
    19   19   20 1   
    20   19   28 1   
    21   20   21 1   
    22   20   23 1   
    23   20   29 1   
    24   21   22 2   
    25   21   41 1   
    26   23   24 1   
    27   23   30 1   
    28   23   31 1   
    29   24   25 1   
    30   24   32 1   
    31   24   33 1   
    32   25   26 1   
    33   25   34 1   
    34   25   35 1   
    35   26   27 1   
    36   26   36 1   
    37   26   37 1   
    38   27   38 1   
    39   27   39 1   
    40   27   40 1   
    41   41   42 1   
    42   41   49 1   
    43   42   43 1   
    44   42   45 1   
    45   42   50 1   
    46   43   44 2   
    47   43   53 1   
    48   45   46 1   
    49   45   51 1   
    50   45   52 1   
    51   46   47 1   
    52   46   48 1   
    53   53   54 1   
    54   53   57 1   
    55   54   55 1   
    56   54   58 1   
    57   54   59 1   
    58   55   56 2   
    59   55   60 1   
    60   60   61 1   
    61   60   68 1   
    62   61   62 1   
    63   61   64 1   
    64   61   69 1   
    65   62   63 2   
    66   62   72 1   
    67   64   65 1   
    68   64   70 1   
    69   64   71 1   
    70   65   66 1   
    71   65   67 1   
    72   72   73 1   
    73   72   76 1   
    74   73   74 1   
    75   73   77 1   
    76   73   78 1   
    77   74   75 2   
    78   74   79 1   
    79   79   80 1   
    80   79   86 1   
    81   80   81 1   
    82   80   83 1   
    83   80   87 1   
    84   81   82 2   
    85   81   93 1   
    86   83   84 1   
    87   83   85 1   
    88   83   88 1   
    89   84   90 1   
    90   84   91 1   
    91   84   92 1   
    92   85   89 1   
    93   93   94 1   
    94   93  101 1   
    95   94   95 1   
    96   94   97 1   
    97   94  102 1   
    98   95   96 2   
    99   95  112 1   
   100   97   98 1   
   101   97   99 1   
   102   97  103 1   
   103   98  100 1   
   104   98  104 1   
   105   98  105 1   
   106   99  106 1   
   107   99  107 1   
   108   99  108 1   
   109  100  109 1   
   110  100  110 1   
   111  100  111 1   
   112  112  113 1   
   113  112  119 1   
   114  113  114 1   
   115  113  116 1   
   116  113  120 1   
   117  114  115 2   
   118  114  126 1   
   119  116  117 1   
   120  116  118 1   
   121  116  121 1   
   122  117  123 1   
   123  117  124 1   
   124  117  125 1   
   125  118  122 1   
   126  126  127 1   
   127  126  133 1   
   128  127  128 1   
   129  127  130 1   
   130  127  134 1   
   131  128  129 2   
   132  128  140 1   
   133  130  131 1   
   134  130  132 1   
   135  130  135 1   
   136  131  137 1   
   137  131  138 1   
   138  131  139 1   
   139  132  136 1   
   140  140  141 1   
   141  140  149 1   
   142  141  142 1   
   143  141  144 1   
   144  141  150 1   
   145  142  143 2   
   146  142  162 1   
   147  144  145 1   
   148  144  151 1   
   149  144  152 1   
   150  145  146 1   
   151  145  153 1   
   152  145  154 1   
   153  146  147 1   
   154  146  155 1   
   155  146  156 1   
   156  147  148 1   
   157  147  157 1   
   158  147  158 1   
   159  148  159 1   
   160  148  160 1   
   161  148  161 1   
   162  162  163 1   
   163  162  171 1   
   164  163  164 1   
   165  163  166 1   
   166  163  172 1   
   167  164  165 2   
   168  164  177 1   
   169  166  167 1   
   170  166  173 1   
   171  166  174 1   
   172  167  168 1   
   173  167  175 1   
   174  167  176 1   
   175  168  169 1   
   176  168  170 1   
   177  177  178 1   
   178  177  182 1   
   179  178  179 1   
   180  178  180 1   
   181  178  181 1   
   182  184  185 1   
   183  184  186 1   
   184  187  188 1   
   185  187  189 1   
@<TRIPOS>SUBSTRUCTURE
     1 MOL         1 TEMP              0 ****  ****    0 ROOT
