@<TRIPOS>MOLECULE
MOL
  189   185     1     0     0
SMALL
resp


@<TRIPOS>ATOM
      1 C1         -0.8150    2.1450    5.9870 c3        1 MOL     -0.269023
      2 C2         -0.9440    1.9190    4.5410 c         1 MOL      0.835959
      3 O1         -0.0830    2.2370    3.7740 o         1 MOL     -0.689744
      4 H1         -1.7350    2.5870    6.3690 hc        1 MOL      0.055856
      5 H2         -0.6340    1.1950    6.4900 hc        1 MOL      0.055856
      6 H3          0.0180    2.8220    6.1780 hc        1 MOL      0.055856
      7 N1         -2.0960    1.4450    4.1360 n         1 MOL     -0.623165
      8 C3         -2.5480    1.3670    2.7040 c3        1 MOL      0.006745
      9 C4         -2.8890    2.8100    2.3170 c         1 MOL      0.523137
     10 O2         -3.9010    3.3740    2.7720 o         1 MOL     -0.565628
     11 C5         -3.7140    0.3850    2.6020 c3        1 MOL     -0.153702
     12 C6         -4.1770    0.2440    1.1590 c         1 MOL      0.695875
     13 O3         -5.0720   -0.5410    0.8560 o         1 MOL     -0.634291
     14 O4         -3.6620    0.9480    0.2410 o         1 MOL     -0.634291
     15 H4         -2.7400    1.1370    4.8510 hn        1 MOL      0.320792
     16 H5         -1.6940    1.0630    2.0930 h1        1 MOL      0.098987
     17 H6         -4.5430    0.5970    3.2880 hc        1 MOL      0.058970
     18 H7         -3.3780   -0.6070    2.8970 hc        1 MOL      0.058970
     19 N2         -2.1860    3.3880    1.3930 n         1 MOL     -0.282918
     20 C7         -2.3130    4.7710    0.8500 c3        1 MOL     -0.207657
     21 C8         -3.4800    4.9400   -0.0570 c         1 MOL      0.518099
     22 O5         -3.9980    6.0630   -0.1430 o         1 MOL     -0.579866
     23 C9         -1.0680    5.3360    0.1840 c3        1 MOL     -0.060452
     24 C10         0.1210    5.3580    1.1180 c3        1 MOL      0.211169
     25 C11         1.2590    6.2200    0.6120 c3        1 MOL     -0.189839
     26 C12         0.9100    7.7010    0.3240 c3        1 MOL     -0.018404
     27 N3          0.5920    8.4570    1.5800 n4        1 MOL     -0.411727
     28 H8         -1.4820    2.8400    0.9110 hn        1 MOL      0.342329
     29 H9         -2.6210    5.3710    1.7060 h1        1 MOL      0.095107
     30 H10        -1.2990    6.3800   -0.0170 hc        1 MOL      0.067216
     31 H11        -0.9270    4.8610   -0.7870 hc        1 MOL      0.067216
     32 H12         0.5400    4.3540    1.1970 hc        1 MOL     -0.012882
     33 H13        -0.1290    5.8150    2.0730 hc        1 MOL     -0.012882
     34 H14         1.4080    5.8510   -0.4060 hc        1 MOL      0.088693
     35 H15         2.1660    6.1030    1.2140 hc        1 MOL      0.088693
     36 H16         0.0810    7.7310   -0.3920 hx        1 MOL      0.094742
     37 H17         1.8190    8.1080   -0.1410 hx        1 MOL      0.094742
     38 H18        -0.1790    7.9920    2.0240 hn        1 MOL      0.341044
     39 H19         1.4420    8.5990    2.1180 hn        1 MOL      0.341044
     40 H20         0.3110    9.4240    1.5050 hn        1 MOL      0.341044
     41 N4         -3.8270    3.8780   -0.7880 n         1 MOL     -0.111391
     42 C13        -4.7180    3.7910   -1.9200 c3        1 MOL     -0.119844
     43 C14        -6.1160    3.2940   -1.5940 c         1 MOL      0.539777
     44 O6         -7.0400    3.6000   -2.3120 o         1 MOL     -0.519573
     45 C15        -4.0140    2.9500   -2.9920 c3        1 MOL      0.013602
     46 C16        -2.4950    3.1270   -3.0830 c         1 MOL      0.772598
     47 O7         -2.0190    4.0440   -3.7830 o         1 MOL     -0.673453
     48 O8         -1.8030    2.3060   -2.4500 o         1 MOL     -0.673453
     49 H21        -3.3450    3.0120   -0.5770 hn        1 MOL     -0.037446
     50 H22        -4.8370    4.7730   -2.3560 h1        1 MOL      0.076062
     51 H23        -4.4360    3.0500   -3.9870 hc        1 MOL      0.001945
     52 H24        -4.2050    1.9320   -2.6650 hc        1 MOL      0.001945
     53 N5         -6.2660    2.4120   -0.5740 n         1 MOL     -0.357476
     54 C17        -7.5270    1.7330   -0.2330 c3        1 MOL     -0.092976
     55 C18        -7.7280    0.3660   -0.9600 c         1 MOL      0.462839
     56 O9         -8.8870    0.0740   -1.3430 o         1 MOL     -0.593265
     57 H25        -5.4870    2.2500    0.0490 hn        1 MOL      0.269378
     58 H26        -8.4080    2.2930   -0.5350 h1        1 MOL      0.089507
     59 H27        -7.5960    1.5010    0.8320 h1        1 MOL      0.089507
     60 N6         -6.7250   -0.4300   -1.3180 n         1 MOL     -0.084879
     61 C19        -6.8590   -1.6800   -2.0890 c3        1 MOL     -0.083467
     62 C20        -6.9120   -2.8730   -1.0810 c         1 MOL      0.407445
     63 O10        -7.2120   -3.9710   -1.5230 o         1 MOL     -0.521639
     64 C21        -5.7550   -1.8510   -3.1610 c3        1 MOL     -0.136692
     65 C22        -4.4490   -1.4250   -2.5720 c         1 MOL      0.684620
     66 O11        -3.9740   -2.0470   -1.5850 o         1 MOL     -0.718599
     67 O12        -3.8440   -0.4910   -3.1310 o         1 MOL     -0.718599
     68 H28        -5.8110   -0.1260   -1.0120 hn        1 MOL      0.126538
     69 H29        -7.7730   -1.6480   -2.6850 h1        1 MOL      0.137294
     70 H30        -6.1260   -1.1980   -3.9490 hc        1 MOL      0.063901
     71 H31        -5.7610   -2.8680   -3.5470 hc        1 MOL      0.063901
     72 N7         -6.6610   -2.6680    0.2460 n         1 MOL     -0.302495
     73 C23        -6.6270   -3.8590    1.1720 c3        1 MOL     -0.141041
     74 C24        -5.2370   -4.5110    1.0800 c         1 MOL      0.463392
     75 O13        -5.0890   -5.6360    1.4740 o         1 MOL     -0.539366
     76 H32        -6.3360   -1.7830    0.6060 hn        1 MOL      0.217406
     77 H33        -7.3990   -4.5290    0.8090 h1        1 MOL      0.115292
     78 H34        -6.8970   -3.5350    2.1750 h1        1 MOL      0.115292
     79 N8         -4.1830   -3.8170    0.5570 n         1 MOL     -0.093437
     80 C25        -2.8300   -4.3640    0.4930 c3        1 MOL     -0.209778
     81 C26        -1.7110   -3.4380    0.9110 c         1 MOL      0.615711
     82 O14        -1.7440   -2.2290    0.7470 o         1 MOL     -0.574642
     83 C27        -2.4700   -5.0940   -0.8050 c3        1 MOL      0.466278
     84 C28        -3.5270   -6.0710   -1.3690 c3        1 MOL     -0.489024
     85 O15        -2.3990   -4.0850   -1.8420 oh        1 MOL     -0.676064
     86 H35        -4.2710   -2.8340    0.3770 hn        1 MOL      0.141008
     87 H36        -2.8200   -5.2040    1.1850 h1        1 MOL      0.048249
     88 H37        -1.4940   -5.5750   -0.7020 h1        1 MOL     -0.000869
     89 H38        -3.2250   -3.5990   -1.7740 ho        1 MOL      0.426380
     90 H39        -4.5210   -5.6310   -1.4230 hc        1 MOL      0.131632
     91 H40        -3.1870   -6.3990   -2.3420 hc        1 MOL      0.131632
     92 H41        -3.5970   -6.9410   -0.7130 hc        1 MOL      0.131632
     93 N9         -0.6190   -4.0930    1.3240 n         1 MOL     -0.527480
     94 C29         0.6530   -3.4610    1.5610 c3        1 MOL      0.047377
     95 C30         1.7980   -3.9710    0.6690 c         1 MOL      0.524356
     96 O16         2.0750   -5.1240    0.7860 o         1 MOL     -0.558589
     97 C31         0.9630   -3.5010    3.0350 c3        1 MOL     -0.042327
     98 C32         0.1090   -2.4650    3.8330 c3        1 MOL     -0.076444
     99 C33         2.4870   -3.0430    3.2230 c3        1 MOL     -0.007106
    100 C34         0.5830   -2.3000    5.2890 c3        1 MOL     -0.239998
    101 H42        -0.6850   -5.0970    1.3950 hn        1 MOL      0.308722
    102 H43         0.5540   -2.3960    1.3570 h1        1 MOL      0.102752
    103 H44         0.8350   -4.5130    3.4220 hc        1 MOL      0.057554
    104 H45        -0.9560   -2.7030    3.8600 hc        1 MOL      0.070099
    105 H46         0.1330   -1.4950    3.3330 hc        1 MOL      0.070099
    106 H47         2.6070   -2.0050    2.9040 hc        1 MOL     -0.010712
    107 H48         2.8020   -3.2280    4.2480 hc        1 MOL     -0.010712
    108 H49         3.2810   -3.5980    2.7290 hc        1 MOL     -0.010712
    109 H50        -0.2310   -1.9730    5.9380 hc        1 MOL      0.065074
    110 H51         1.0320   -3.1910    5.7370 hc        1 MOL      0.065074
    111 H52         1.3490   -1.5400    5.4060 hc        1 MOL      0.065074
    112 N10         2.3910   -3.0980   -0.0820 n         1 MOL     -0.250405
    113 C35         3.5930   -3.4110   -0.9130 c3        1 MOL     -0.028624
    114 C36         4.8250   -2.6320   -0.4620 c         1 MOL      0.481697
    115 O17         4.6440   -1.7870    0.4510 o         1 MOL     -0.372424
    116 C37         3.3480   -3.1500   -2.3640 c3        1 MOL      0.223780
    117 C38         2.4330   -4.2180   -2.9120 c3        1 MOL     -0.535559
    118 O18         2.7940   -1.9030   -2.5780 oh        1 MOL     -0.601088
    119 H53         2.0650   -2.1440   -0.1800 hn        1 MOL      0.265707
    120 H54         3.8370   -4.4550   -0.7320 h1        1 MOL      0.078013
    121 H55         4.2930   -3.2480   -2.8800 h1        1 MOL      0.012740
    122 H56         2.3390   -1.9130   -3.4290 ho        1 MOL      0.393789
    123 H57         2.8850   -5.1800   -2.6700 hc        1 MOL      0.154804
    124 H58         1.3950   -4.1260   -2.5810 hc        1 MOL      0.154804
    125 H59         2.3680   -4.1620   -3.9930 hc        1 MOL      0.154804
    126 N11         6.0200   -2.8200   -1.0490 n         1 MOL     -0.440417
    127 C39         7.3850   -2.2770   -0.5200 c3        1 MOL     -0.200861
    128 C40         7.4360   -0.8300    0.0150 c         1 MOL      0.307917
    129 O19         8.0980   -0.6130    1.0190 o         1 MOL     -0.484923
    130 C41         8.5280   -2.5500   -1.4520 c3        1 MOL      0.348685
    131 C42         8.8730   -4.0430   -1.5570 c3        1 MOL     -0.599666
    132 O20         8.3470   -1.9500   -2.7600 oh        1 MOL     -0.610437
    133 H60         6.0550   -3.4180   -1.8580 hn        1 MOL      0.297404
    134 H61         7.6080   -2.9250    0.3240 h1        1 MOL      0.196157
    135 H62         9.3800   -1.9470   -1.1260 h1        1 MOL      0.056753
    136 H63         8.9730   -1.2760   -3.0350 ho        1 MOL      0.357313
    137 H64         8.0050   -4.5140   -2.0210 hc        1 MOL      0.184573
    138 H65         9.6700   -4.2010   -2.2810 hc        1 MOL      0.184573
    139 H66         8.9880   -4.4340   -0.5390 hc        1 MOL      0.184573
    140 N12         6.8140    0.1990   -0.5970 n         1 MOL     -0.116890
    141 C43         6.8930    1.5970   -0.1970 c3        1 MOL     -0.036447
    142 C44         5.8930    1.9430    0.9450 c         1 MOL      0.295677
    143 O21         6.0060    2.9170    1.6480 o         1 MOL     -0.500461
    144 C45         6.6840    2.5140   -1.3550 c3        1 MOL     -0.142850
    145 C46         7.8150    2.4730   -2.3800 c3        1 MOL      0.172952
    146 C47         7.5170    3.3600   -3.6400 c3        1 MOL     -0.101850
    147 C48         8.7480    3.5350   -4.5240 c3        1 MOL     -0.026334
    148 N13         9.1670    2.2760   -5.0360 n4        1 MOL     -0.160603
    149 H67         6.1180   -0.0070   -1.3000 hn        1 MOL      0.231373
    150 H68         7.9040    1.6750    0.1910 h1        1 MOL      0.119874
    151 H69         6.5850    3.5270   -0.9680 hc        1 MOL      0.053920
    152 H70         5.7130    2.2110   -1.7600 hc        1 MOL      0.053920
    153 H71         7.8940    1.4140   -2.6250 hc        1 MOL     -0.043627
    154 H72         8.7440    2.8720   -1.9560 hc        1 MOL     -0.043627
    155 H73         7.1930    4.3430   -3.3070 hc        1 MOL      0.058164
    156 H74         6.7350    2.9540   -4.2860 hc        1 MOL      0.058164
    157 H75         9.6060    4.0410   -4.0620 hx        1 MOL      0.103596
    158 H76         8.5000    4.1400   -5.3850 hx        1 MOL      0.103596
    159 H77         8.4190    1.7150   -5.4280 hn        1 MOL      0.232199
    160 H78         9.8780    2.5110   -5.7120 hn        1 MOL      0.232199
    161 H79         9.6690    1.7590   -4.3320 hn        1 MOL      0.232199
    162 N14         5.0450    0.9970    1.2640 n         1 MOL      0.035992
    163 C49         4.0110    0.9550    2.3090 c3        1 MOL     -0.180135
    164 C50         4.5040    0.2120    3.5950 c         1 MOL      0.484787
    165 O22         4.5960    0.7640    4.6790 o         1 MOL     -0.529902
    166 C51         2.6660    0.5150    1.7920 c3        1 MOL      0.257421
    167 C52         1.9780    1.4380    0.8290 c3        1 MOL     -0.120099
    168 C53         0.6680    0.9020    0.2140 c         1 MOL      0.765328
    169 O23        -0.3310    1.6300    0.0560 o         1 MOL     -0.802598
    170 O24         0.5270   -0.3020   -0.1030 o         1 MOL     -0.802598
    171 H80         4.9990    0.2340    0.6050 hn        1 MOL      0.081062
    172 H81         3.8120    2.0090    2.5240 h1        1 MOL      0.083265
    173 H82         2.0660    0.4730    2.7080 hc        1 MOL     -0.018676
    174 H83         2.7330   -0.4830    1.3820 hc        1 MOL     -0.018676
    175 H84         2.6990    1.5440    0.0170 hc        1 MOL     -0.013735
    176 H85         1.8560    2.4300    1.2610 hc        1 MOL     -0.013735
    177 N15         5.2260   -0.8700    3.3440 n         1 MOL     -0.121740
    178 C54         6.0580   -1.5570    4.3480 c3        1 MOL     -0.317313
    179 H86         5.6920   -1.3190    5.3470 h1        1 MOL      0.118444
    180 H87         6.0040   -2.6340    4.1900 h1        1 MOL      0.118444
    181 H88         7.0920   -1.2260    4.2510 h1        1 MOL      0.118444
    182 H89         5.3840   -1.1700    2.3960 hn        1 MOL      0.181387
    183 Ca1        -1.7900   -0.1670   -1.3450 Ca        1 MOL      1.753857
    184 O25        -0.5870   -2.2500   -2.3830 oh        1 MOL     -0.794807
    185 H90        -1.1430   -3.0300   -2.3260 ho        1 MOL      0.375625
    186 H91         0.0050   -2.4300   -3.1060 ho        1 MOL      0.375625
    187 O26        -0.6180    0.3050   -3.7750 oh        1 MOL     -0.794807
    188 H92         0.1390   -0.2720   -3.8940 ho        1 MOL      0.375625
    189 H93        -0.3040    1.1690   -4.0480 ho        1 MOL      0.375625
@<TRIPOS>BOND
     1    1    2 1   
     2    1    4 1   
     3    1    5 1   
     4    1    6 1   
     5    2    3 2   
     6    2    7 1   
     7    7    8 1   
     8    7   15 1   
     9    8    9 1   
    10    8   11 1   
    11    8   16 1   
    12    9   10 2   
    13    9   19 1   
    14   11   12 1   
    15   11   17 1   
    16   11   18 1   
    17   12   13 1   
    18   12   14 1   
    19   19   20 1   
    20   19   28 1   
    21   20   21 1   
    22   20   23 1   
    23   20   29 1   
    24   21   22 2   
    25   21   41 1   
    26   23   24 1   
    27   23   30 1   
    28   23   31 1   
    29   24   25 1   
    30   24   32 1   
    31   24   33 1   
    32   25   26 1   
    33   25   34 1   
    34   25   35 1   
    35   26   27 1   
    36   26   36 1   
    37   26   37 1   
    38   27   38 1   
    39   27   39 1   
    40   27   40 1   
    41   41   42 1   
    42   41   49 1   
    43   42   43 1   
    44   42   45 1   
    45   42   50 1   
    46   43   44 2   
    47   43   53 1   
    48   45   46 1   
    49   45   51 1   
    50   45   52 1   
    51   46   47 1   
    52   46   48 1   
    53   53   54 1   
    54   53   57 1   
    55   54   55 1   
    56   54   58 1   
    57   54   59 1   
    58   55   56 2   
    59   55   60 1   
    60   60   61 1   
    61   60   68 1   
    62   61   62 1   
    63   61   64 1   
    64   61   69 1   
    65   62   63 2   
    66   62   72 1   
    67   64   65 1   
    68   64   70 1   
    69   64   71 1   
    70   65   66 1   
    71   65   67 1   
    72   72   73 1   
    73   72   76 1   
    74   73   74 1   
    75   73   77 1   
    76   73   78 1   
    77   74   75 2   
    78   74   79 1   
    79   79   80 1   
    80   79   86 1   
    81   80   81 1   
    82   80   83 1   
    83   80   87 1   
    84   81   82 2   
    85   81   93 1   
    86   83   84 1   
    87   83   85 1   
    88   83   88 1   
    89   84   90 1   
    90   84   91 1   
    91   84   92 1   
    92   85   89 1   
    93   93   94 1   
    94   93  101 1   
    95   94   95 1   
    96   94   97 1   
    97   94  102 1   
    98   95   96 2   
    99   95  112 1   
   100   97   98 1   
   101   97   99 1   
   102   97  103 1   
   103   98  100 1   
   104   98  104 1   
   105   98  105 1   
   106   99  106 1   
   107   99  107 1   
   108   99  108 1   
   109  100  109 1   
   110  100  110 1   
   111  100  111 1   
   112  112  113 1   
   113  112  119 1   
   114  113  114 1   
   115  113  116 1   
   116  113  120 1   
   117  114  115 2   
   118  114  126 1   
   119  116  117 1   
   120  116  118 1   
   121  116  121 1   
   122  117  123 1   
   123  117  124 1   
   124  117  125 1   
   125  118  122 1   
   126  126  127 1   
   127  126  133 1   
   128  127  128 1   
   129  127  130 1   
   130  127  134 1   
   131  128  129 2   
   132  128  140 1   
   133  130  131 1   
   134  130  132 1   
   135  130  135 1   
   136  131  137 1   
   137  131  138 1   
   138  131  139 1   
   139  132  136 1   
   140  140  141 1   
   141  140  149 1   
   142  141  142 1   
   143  141  144 1   
   144  141  150 1   
   145  142  143 2   
   146  142  162 1   
   147  144  145 1   
   148  144  151 1   
   149  144  152 1   
   150  145  146 1   
   151  145  153 1   
   152  145  154 1   
   153  146  147 1   
   154  146  155 1   
   155  146  156 1   
   156  147  148 1   
   157  147  157 1   
   158  147  158 1   
   159  148  159 1   
   160  148  160 1   
   161  148  161 1   
   162  162  163 1   
   163  162  171 1   
   164  163  164 1   
   165  163  166 1   
   166  163  172 1   
   167  164  165 2   
   168  164  177 1   
   169  166  167 1   
   170  166  173 1   
   171  166  174 1   
   172  167  168 1   
   173  167  175 1   
   174  167  176 1   
   175  168  169 1   
   176  168  170 1   
   177  177  178 1   
   178  177  182 1   
   179  178  179 1   
   180  178  180 1   
   181  178  181 1   
   182  184  185 1   
   183  184  186 1   
   184  187  188 1   
   185  187  189 1   
@<TRIPOS>SUBSTRUCTURE
     1 MOL         1 TEMP              0 ****  ****    0 ROOT
