@<TRIPOS>MOLECULE
MOL
  189   185     1     0     0
SMALL
resp


@<TRIPOS>ATOM
      1 C1          0.2840    1.8880    6.4060 c3        1 MOL     -0.321375
      2 C2          0.0130    1.6040    4.9130 c         1 MOL      0.835442
      3 O1          0.9390    1.6290    4.1250 o         1 MOL     -0.649698
      4 H1          0.0860    2.9380    6.6170 hc        1 MOL      0.073755
      5 H2         -0.3690    1.2650    7.0180 hc        1 MOL      0.073755
      6 H3          1.3250    1.6610    6.6360 hc        1 MOL      0.073755
      7 N1         -1.2440    1.3820    4.5050 n         1 MOL     -0.682100
      8 C3         -1.7600    1.2710    3.0930 c3        1 MOL      0.301739
      9 C4         -1.9470    2.7690    2.6160 c         1 MOL      0.528085
     10 O2         -2.4530    3.5830    3.3530 o         1 MOL     -0.560353
     11 C5         -2.9740    0.3150    3.0590 c3        1 MOL     -0.460394
     12 C6         -3.7280    0.2050    1.7210 c         1 MOL      0.938463
     13 O3         -3.2020    0.5440    0.6660 o         1 MOL     -0.701725
     14 O4         -4.8310   -0.3420    1.8360 o         1 MOL     -0.701725
     15 H4         -1.8800    1.1180    5.2570 hn        1 MOL      0.316801
     16 H5         -0.9420    0.8610    2.4930 h1        1 MOL      0.001636
     17 H6         -3.7480    0.6930    3.7270 hc        1 MOL      0.099115
     18 H7         -2.5790   -0.6580    3.3590 hc        1 MOL      0.099115
     19 N2         -1.4050    3.1180    1.4480 n         1 MOL     -0.365225
     20 C7         -1.2970    4.4960    0.8970 c3        1 MOL      0.252596
     21 C8         -2.6390    4.9200    0.2410 c         1 MOL      0.404082
     22 O5         -3.0550    6.1140    0.3000 o         1 MOL     -0.561513
     23 C9         -0.0590    4.5850    0.0260 c3        1 MOL     -0.114651
     24 C10         0.3680    5.9670   -0.4230 c3        1 MOL      0.051782
     25 C11         0.4960    6.9980    0.5060 c3        1 MOL      0.123613
     26 C12         1.0640    8.2220   -0.2490 c3        1 MOL      0.017983
     27 N3          0.9730    9.3760    0.7030 n4        1 MOL     -0.306002
     28 H8         -1.0120    2.4270    0.8300 hn        1 MOL      0.210146
     29 H9         -1.1590    5.1510    1.7550 h1        1 MOL     -0.041945
     30 H10        -0.3860    3.9270   -0.7820 hc        1 MOL      0.039153
     31 H11         0.7230    4.1150    0.6260 hc        1 MOL      0.039153
     32 H12        -0.2980    6.2550   -1.2430 hc        1 MOL     -0.015934
     33 H13         1.3150    5.8440   -0.9330 hc        1 MOL     -0.015934
     34 H14         1.1690    6.7900    1.3380 hc        1 MOL     -0.005070
     35 H15        -0.5420    7.1830    0.7730 hc        1 MOL     -0.005070
     36 H16         0.5420    8.4720   -1.1770 hx        1 MOL      0.066661
     37 H17         2.1020    7.9390   -0.4380 hx        1 MOL      0.066661
     38 H18         1.5020    9.1620    1.5440 hn        1 MOL      0.310739
     39 H19         1.4930   10.1580    0.3450 hn        1 MOL      0.310739
     40 H20         0.0350    9.7070    0.8910 hn        1 MOL      0.310739
     41 N4         -3.3210    3.9610   -0.3690 n         1 MOL     -0.289300
     42 C13        -4.5170    4.2250   -1.1330 c3        1 MOL      0.130120
     43 C14        -5.7570    3.3300   -0.6770 c         1 MOL      0.453730
     44 O6         -6.8160    3.7740   -1.1040 o         1 MOL     -0.519577
     45 C15        -4.2250    4.0760   -2.6190 c3        1 MOL     -0.303823
     46 C16        -3.3170    2.8960   -3.0560 c         1 MOL      0.780573
     47 O7         -2.6000    2.9380   -4.0590 o         1 MOL     -0.695270
     48 O8         -3.2350    1.8890   -2.2980 o         1 MOL     -0.695270
     49 H21        -2.9140    3.0330   -0.4430 hn        1 MOL      0.198328
     50 H22        -4.8470    5.2320   -0.9270 h1        1 MOL      0.073992
     51 H23        -3.6260    4.9220   -2.9510 hc        1 MOL      0.074062
     52 H24        -5.1850    4.1250   -3.1300 hc        1 MOL      0.074062
     53 N5         -5.6180    2.2920    0.1770 n         1 MOL     -0.239049
     54 C17        -6.8280    1.7040    0.7720 c3        1 MOL     -0.122767
     55 C18        -7.4440    0.6540   -0.0430 c         1 MOL      0.531422
     56 O9         -8.6700    0.4900    0.0250 o         1 MOL     -0.601358
     57 H25        -4.7290    1.8010    0.2350 hn        1 MOL      0.048746
     58 H26        -7.5610    2.4920    0.9680 h1        1 MOL      0.095874
     59 H27        -6.5020    1.2720    1.7280 h1        1 MOL      0.095874
     60 N6         -6.6730   -0.0190   -0.8480 n         1 MOL     -0.191771
     61 C19        -7.1180   -1.2060   -1.6200 c3        1 MOL     -0.058681
     62 C20        -6.8970   -2.4590   -0.7790 c         1 MOL      0.468465
     63 O10        -7.0080   -3.5440   -1.3210 o         1 MOL     -0.509837
     64 C21        -6.3860   -1.2870   -2.9500 c3        1 MOL     -0.165178
     65 C22        -4.8170   -1.3940   -2.8290 c         1 MOL      0.615349
     66 O11        -4.1800   -1.4210   -3.9050 o         1 MOL     -0.649620
     67 O12        -4.2800   -1.3560   -1.7080 o         1 MOL     -0.649620
     68 H28        -5.6820    0.1350   -0.9000 hn        1 MOL      0.147613
     69 H29        -8.1840   -1.2060   -1.8730 h1        1 MOL      0.127658
     70 H30        -6.7920   -0.4590   -3.5330 hc        1 MOL      0.072832
     71 H31        -6.7310   -2.1250   -3.5570 hc        1 MOL      0.072832
     72 N7         -6.7070   -2.3530    0.5390 n         1 MOL     -0.387630
     73 C23        -6.5910   -3.5210    1.4380 c3        1 MOL     -0.097201
     74 C24        -5.3040   -4.3360    1.1690 c         1 MOL      0.468450
     75 O13        -5.1570   -5.5620    1.4090 o         1 MOL     -0.590784
     76 H32        -6.5440   -1.4600    0.9690 hn        1 MOL      0.308783
     77 H33        -7.4870   -4.1340    1.3700 h1        1 MOL      0.110088
     78 H34        -6.6200   -3.1600    2.4740 h1        1 MOL      0.110088
     79 N8         -4.2850   -3.7220    0.6010 n         1 MOL     -0.215285
     80 C25        -3.0440   -4.3540    0.2570 c3        1 MOL     -0.075215
     81 C26        -1.7690   -3.5230    0.5290 c         1 MOL      0.678961
     82 O14        -1.5940   -2.4220    0.0070 o         1 MOL     -0.659525
     83 C27        -3.1050   -4.9220   -1.2510 c3        1 MOL      0.364334
     84 C28        -1.7860   -5.4600   -1.8430 c3        1 MOL     -0.215509
     85 O15        -4.0030   -5.9720   -1.2270 oh        1 MOL     -0.640106
     86 H35        -4.4130   -2.7250    0.5150 hn        1 MOL      0.148537
     87 H36        -2.9540   -5.2510    0.8580 h1        1 MOL      0.058076
     88 H37        -3.4350   -4.1120   -1.8920 h1        1 MOL      0.092405
     89 H38        -4.3450   -6.0370   -0.3350 ho        1 MOL      0.418334
     90 H39        -0.9830   -4.7610   -2.0860 hc        1 MOL      0.044569
     91 H40        -1.4340   -6.2120   -1.1340 hc        1 MOL      0.044569
     92 H41        -1.9320   -6.0270   -2.7610 hc        1 MOL      0.044569
     93 N9         -0.7280   -4.0930    1.2290 n         1 MOL     -0.735670
     94 C29         0.6490   -3.4810    1.3750 c3        1 MOL      0.193894
     95 C30         1.5700   -3.9130    0.2590 c         1 MOL      0.607529
     96 O16         1.6400   -5.0990    0.0440 o         1 MOL     -0.571135
     97 C31         0.9950   -3.6810    2.8830 c3        1 MOL     -0.003533
     98 C32         0.2860   -2.4920    3.5610 c3        1 MOL      0.035144
     99 C33         2.5270   -3.7410    3.1980 c3        1 MOL     -0.091666
    100 C34         0.4410   -2.5430    5.1130 c3        1 MOL     -0.225244
    101 H42        -0.8420   -5.0230    1.6070 hn        1 MOL      0.358221
    102 H43         0.4750   -2.4090    1.2160 h1        1 MOL      0.053851
    103 H44         0.6120   -4.6810    3.0940 hc        1 MOL      0.042505
    104 H45        -0.7810   -2.6240    3.3630 hc        1 MOL      0.029707
    105 H46         0.5770   -1.4960    3.2530 hc        1 MOL      0.029707
    106 H47         3.0470   -4.5510    2.6980 hc        1 MOL     -0.004150
    107 H48         2.9570   -2.8480    2.7440 hc        1 MOL     -0.004150
    108 H49         2.6750   -3.6950    4.2810 hc        1 MOL     -0.004150
    109 H50         0.3580   -3.5340    5.5380 hc        1 MOL      0.056163
    110 H51         1.4020   -2.0870    5.3710 hc        1 MOL      0.056163
    111 H52        -0.2520   -1.7960    5.5180 hc        1 MOL      0.056163
    112 N10         2.1670   -2.9440   -0.4720 n         1 MOL     -0.230334
    113 C35         3.2990   -3.2770   -1.3700 c3        1 MOL     -0.082946
    114 C36         4.6250   -3.1170   -0.6700 c         1 MOL      0.331985
    115 O17         4.7630   -2.5020    0.3840 o         1 MOL     -0.316756
    116 C37         3.2130   -2.3190   -2.5420 c3        1 MOL      0.342430
    117 C38         2.0400   -2.4890   -3.4680 c3        1 MOL     -0.638021
    118 O18         3.1620   -0.9850   -2.0920 oh        1 MOL     -0.600635
    119 H53         1.8610   -1.9830   -0.4000 hn        1 MOL      0.188020
    120 H54         3.2510   -4.2950   -1.7560 h1        1 MOL      0.071748
    121 H55         4.1140   -2.3510   -3.1650 h1        1 MOL      0.028241
    122 H56         2.2980   -0.8610   -1.6880 ho        1 MOL      0.374901
    123 H57         1.2110   -1.9110   -3.0720 hc        1 MOL      0.176607
    124 H58         2.2780   -2.1700   -4.4770 hc        1 MOL      0.176607
    125 H59         1.6090   -3.4980   -3.5020 hc        1 MOL      0.176607
    126 N11         5.7170   -3.3890   -1.3740 n         1 MOL     -0.171597
    127 C39         7.0500   -3.1270   -0.9060 c3        1 MOL     -0.293196
    128 C40         7.3080   -1.6480   -0.4480 c         1 MOL      0.438681
    129 O19         7.8670   -1.5540    0.6370 o         1 MOL     -0.473140
    130 C41         8.0720   -3.4770   -1.9990 c3        1 MOL      0.399253
    131 C42         8.6700   -4.8590   -1.8270 c3        1 MOL     -0.372228
    132 O20         7.5700   -3.3700   -3.2670 oh        1 MOL     -0.669736
    133 H60         5.5730   -3.7960   -2.2940 hn        1 MOL      0.195631
    134 H61         7.0900   -3.7330   -0.0020 h1        1 MOL      0.163288
    135 H62         8.8250   -2.6920   -2.0220 h1        1 MOL      0.033440
    136 H63         7.7090   -4.1580   -3.7940 ho        1 MOL      0.432083
    137 H64         8.8890   -5.0920   -0.7860 hc        1 MOL      0.100966
    138 H65         7.9690   -5.5880   -2.2350 hc        1 MOL      0.100966
    139 H66         9.5490   -5.0390   -2.4510 hc        1 MOL      0.100966
    140 N12         6.8570   -0.5860   -1.1230 n         1 MOL     -0.253471
    141 C43         7.0440    0.8470   -0.7210 c3        1 MOL     -0.138966
    142 C44         6.3300    1.0830    0.6230 c         1 MOL      0.282356
    143 O21         6.8310    1.6790    1.5680 o         1 MOL     -0.458284
    144 C45         6.5210    1.6730   -1.7830 c3        1 MOL     -0.061369
    145 C46         6.9590    3.1000   -1.4570 c3        1 MOL      0.049541
    146 C47         6.3460    4.2240   -2.3460 c3        1 MOL      0.057899
    147 C48         7.1600    5.5590   -2.3270 c3        1 MOL      0.079421
    148 N13         7.2040    6.2270   -3.6720 n4        1 MOL     -0.412281
    149 H67         6.1560   -0.8530   -1.7970 hn        1 MOL      0.227218
    150 H68         8.0950    1.0630   -0.5170 h1        1 MOL      0.127882
    151 H69         5.4260    1.6430   -1.8520 hc        1 MOL      0.048078
    152 H70         6.9440    1.3460   -2.7330 hc        1 MOL      0.048078
    153 H71         8.0360    3.0920   -1.6670 hc        1 MOL      0.021512
    154 H72         6.7390    3.4190   -0.4430 hc        1 MOL      0.021512
    155 H73         5.3060    4.2900   -2.0240 hc        1 MOL     -0.015276
    156 H74         6.3330    3.8470   -3.3710 hc        1 MOL     -0.015276
    157 H75         8.0640    5.3170   -1.7900 hx        1 MOL      0.061598
    158 H76         6.5700    6.2180   -1.6880 hx        1 MOL      0.061598
    159 H77         7.8720    5.6850   -4.2140 hn        1 MOL      0.336094
    160 H78         6.2810    6.1970   -4.0620 hn        1 MOL      0.336094
    161 H79         7.4600    7.2010   -3.7130 hn        1 MOL      0.336094
    162 N14         5.0730    0.6300    0.5990 n         1 MOL      0.004460
    163 C49         4.1900    0.8080    1.7490 c3        1 MOL     -0.088694
    164 C50         4.6930    0.0660    3.0320 c         1 MOL      0.258403
    165 O22         4.7970    0.6370    4.1140 o         1 MOL     -0.516505
    166 C51         2.8030    0.2990    1.3970 c3        1 MOL      0.397935
    167 C52         2.1600    1.1700    0.2950 c3        1 MOL     -0.437350
    168 C53         0.8130    0.5670   -0.1880 c         1 MOL      0.971937
    169 O23        -0.2530    1.0860    0.0760 o         1 MOL     -0.806065
    170 O24         0.8860   -0.4350   -0.9580 o         1 MOL     -0.806065
    171 H80         4.6790    0.2800   -0.2600 hn        1 MOL      0.127697
    172 H81         4.0710    1.8680    1.9840 h1        1 MOL      0.084754
    173 H82         2.1400    0.3400    2.2730 hc        1 MOL     -0.054249
    174 H83         2.7980   -0.7620    1.1500 hc        1 MOL     -0.054249
    175 H84         2.8760    1.3010   -0.5250 hc        1 MOL      0.054666
    176 H85         2.0930    2.1300    0.7940 hc        1 MOL      0.054666
    177 N15         5.1850   -1.1480    2.8280 n         1 MOL      0.227515
    178 C54         5.8710   -2.0280    3.7370 c3        1 MOL     -0.462910
    179 H86         5.7630   -1.6540    4.7560 h1        1 MOL      0.141562
    180 H87         5.4410   -3.0270    3.6700 h1        1 MOL      0.141562
    181 H88         6.9290   -2.0690    3.4770 h1        1 MOL      0.141562
    182 H89         5.2530   -1.4040    1.8600 hn        1 MOL      0.007270
    183 Ca1        -2.0490   -0.2380   -1.5200 Ca        1 MOL      1.796496
    184 O25        -1.8440   -2.1950   -3.4280 oh        1 MOL     -0.942494
    185 H90        -2.7520   -2.0780   -3.7050 ho        1 MOL      0.419862
    186 H91        -1.3370   -2.1470   -4.2380 ho        1 MOL      0.419862
    187 O26        -1.1160    0.7250   -3.8150 oh        1 MOL     -0.942494
    188 H92        -0.5650    0.5260   -4.5690 ho        1 MOL      0.419862
    189 H93        -1.5160    1.5760   -4.0190 ho        1 MOL      0.419862
@<TRIPOS>BOND
     1    1    2 1   
     2    1    4 1   
     3    1    5 1   
     4    1    6 1   
     5    2    3 2   
     6    2    7 1   
     7    7    8 1   
     8    7   15 1   
     9    8    9 1   
    10    8   11 1   
    11    8   16 1   
    12    9   10 2   
    13    9   19 1   
    14   11   12 1   
    15   11   17 1   
    16   11   18 1   
    17   12   13 1   
    18   12   14 1   
    19   19   20 1   
    20   19   28 1   
    21   20   21 1   
    22   20   23 1   
    23   20   29 1   
    24   21   22 2   
    25   21   41 1   
    26   23   24 1   
    27   23   30 1   
    28   23   31 1   
    29   24   25 1   
    30   24   32 1   
    31   24   33 1   
    32   25   26 1   
    33   25   34 1   
    34   25   35 1   
    35   26   27 1   
    36   26   36 1   
    37   26   37 1   
    38   27   38 1   
    39   27   39 1   
    40   27   40 1   
    41   41   42 1   
    42   41   49 1   
    43   42   43 1   
    44   42   45 1   
    45   42   50 1   
    46   43   44 2   
    47   43   53 1   
    48   45   46 1   
    49   45   51 1   
    50   45   52 1   
    51   46   47 1   
    52   46   48 1   
    53   53   54 1   
    54   53   57 1   
    55   54   55 1   
    56   54   58 1   
    57   54   59 1   
    58   55   56 2   
    59   55   60 1   
    60   60   61 1   
    61   60   68 1   
    62   61   62 1   
    63   61   64 1   
    64   61   69 1   
    65   62   63 2   
    66   62   72 1   
    67   64   65 1   
    68   64   70 1   
    69   64   71 1   
    70   65   66 1   
    71   65   67 1   
    72   72   73 1   
    73   72   76 1   
    74   73   74 1   
    75   73   77 1   
    76   73   78 1   
    77   74   75 2   
    78   74   79 1   
    79   79   80 1   
    80   79   86 1   
    81   80   81 1   
    82   80   83 1   
    83   80   87 1   
    84   81   82 2   
    85   81   93 1   
    86   83   84 1   
    87   83   85 1   
    88   83   88 1   
    89   84   90 1   
    90   84   91 1   
    91   84   92 1   
    92   85   89 1   
    93   93   94 1   
    94   93  101 1   
    95   94   95 1   
    96   94   97 1   
    97   94  102 1   
    98   95   96 2   
    99   95  112 1   
   100   97   98 1   
   101   97   99 1   
   102   97  103 1   
   103   98  100 1   
   104   98  104 1   
   105   98  105 1   
   106   99  106 1   
   107   99  107 1   
   108   99  108 1   
   109  100  109 1   
   110  100  110 1   
   111  100  111 1   
   112  112  113 1   
   113  112  119 1   
   114  113  114 1   
   115  113  116 1   
   116  113  120 1   
   117  114  115 2   
   118  114  126 1   
   119  116  117 1   
   120  116  118 1   
   121  116  121 1   
   122  117  123 1   
   123  117  124 1   
   124  117  125 1   
   125  118  122 1   
   126  126  127 1   
   127  126  133 1   
   128  127  128 1   
   129  127  130 1   
   130  127  134 1   
   131  128  129 2   
   132  128  140 1   
   133  130  131 1   
   134  130  132 1   
   135  130  135 1   
   136  131  137 1   
   137  131  138 1   
   138  131  139 1   
   139  132  136 1   
   140  140  141 1   
   141  140  149 1   
   142  141  142 1   
   143  141  144 1   
   144  141  150 1   
   145  142  143 2   
   146  142  162 1   
   147  144  145 1   
   148  144  151 1   
   149  144  152 1   
   150  145  146 1   
   151  145  153 1   
   152  145  154 1   
   153  146  147 1   
   154  146  155 1   
   155  146  156 1   
   156  147  148 1   
   157  147  157 1   
   158  147  158 1   
   159  148  159 1   
   160  148  160 1   
   161  148  161 1   
   162  162  163 1   
   163  162  171 1   
   164  163  164 1   
   165  163  166 1   
   166  163  172 1   
   167  164  165 2   
   168  164  177 1   
   169  166  167 1   
   170  166  173 1   
   171  166  174 1   
   172  167  168 1   
   173  167  175 1   
   174  167  176 1   
   175  168  169 1   
   176  168  170 1   
   177  177  178 1   
   178  177  182 1   
   179  178  179 1   
   180  178  180 1   
   181  178  181 1   
   182  184  185 1   
   183  184  186 1   
   184  187  188 1   
   185  187  189 1   
@<TRIPOS>SUBSTRUCTURE
     1 MOL         1 TEMP              0 ****  ****    0 ROOT
