@<TRIPOS>MOLECULE
MOL
  179   176     1     0     0
SMALL
resp


@<TRIPOS>ATOM
      1 C1          2.2430    3.8230    4.1260 c3        1 MOL     -0.285586
      2 C2          1.3950    3.4620    2.8240 c         1 MOL      0.700726
      3 O1          1.9340    3.2860    1.7220 o         1 MOL     -0.641965
      4 H1          1.9660    3.1490    4.9370 hc        1 MOL      0.073051
      5 H2          3.3060    3.7130    3.9100 hc        1 MOL      0.073051
      6 H3          2.0370    4.8510    4.4220 hc        1 MOL      0.073051
      7 N1          0.1440    3.1990    3.0000 n         1 MOL     -0.748196
      8 C3         -0.8190    2.8480    1.9100 c3        1 MOL      0.248691
      9 C4         -1.3530    4.1030    1.1820 c         1 MOL      0.592859
     10 O2         -2.4890    4.5200    1.3530 o         1 MOL     -0.515819
     11 C5         -1.9110    2.0310    2.5480 c3        1 MOL     -0.208623
     12 C6         -2.8430    1.4600    1.5350 c         1 MOL      0.729278
     13 O3         -3.8780    0.8820    2.0130 o         1 MOL     -0.754913
     14 O4         -2.5690    1.3470    0.3240 o         1 MOL     -0.754913
     15 H4         -0.2390    3.2660    3.9260 hn        1 MOL      0.360240
     16 H5         -0.3010    2.1840    1.2160 h1        1 MOL      0.041869
     17 H6         -2.4920    2.7120    3.1770 hc        1 MOL      0.056737
     18 H7         -1.4670    1.2010    3.0950 hc        1 MOL      0.056737
     19 N2         -0.4630    4.6200    0.3020 n         1 MOL     -0.553681
     20 C7         -0.7380    5.7790   -0.5590 c3        1 MOL      0.194979
     21 C8         -1.6830    5.5600   -1.6970 c         1 MOL      0.457409
     22 O5         -1.6590    6.2840   -2.7170 o         1 MOL     -0.545049
     23 C9          0.5950    6.4060   -1.0520 c3        1 MOL     -0.181603
     24 C10         1.4140    7.0780    0.0960 c3        1 MOL      0.142309
     25 C11         2.6210    7.9350   -0.3980 c3        1 MOL     -0.057945
     26 C12         3.3550    8.5770    0.7750 c3        1 MOL      0.015319
     27 N3          4.3050    7.6220    1.4320 n4        1 MOL     -0.330230
     28 H8          0.4540    4.2190    0.1820 hn        1 MOL      0.358223
     29 H9         -1.1700    6.5990   -0.0020 h1        1 MOL      0.048394
     30 H10         0.3890    7.1790   -1.7960 hc        1 MOL      0.068669
     31 H11         1.2130    5.6590   -1.5510 hc        1 MOL      0.068669
     32 H12         1.8400    6.3230    0.7540 hc        1 MOL     -0.027438
     33 H13         0.7520    7.6090    0.7780 hc        1 MOL     -0.027438
     34 H14         2.2340    8.7720   -0.9770 hc        1 MOL      0.053391
     35 H15         3.2660    7.3120   -1.0220 hc        1 MOL      0.053391
     36 H16         2.6510    8.9530    1.5220 hx        1 MOL      0.082783
     37 H17         3.9380    9.4210    0.3990 hx        1 MOL      0.082783
     38 H18         3.8230    6.9590    2.0250 hn        1 MOL      0.323362
     39 H19         4.9280    7.1240    0.8100 hn        1 MOL      0.323362
     40 H20         4.9940    8.0800    2.0130 hn        1 MOL      0.323362
     41 N4         -2.6740    4.6800   -1.5100 n         1 MOL     -0.190188
     42 C13        -3.7920    4.3280   -2.4510 c3        1 MOL      0.079151
     43 C14        -5.0310    3.8190   -1.6490 c         1 MOL      0.348625
     44 O6         -6.1850    3.9800   -2.1010 o         1 MOL     -0.540813
     45 C15        -3.4100    3.3050   -3.6070 c3        1 MOL     -0.298859
     46 C16        -2.8260    2.0410   -2.9500 c         1 MOL      0.790941
     47 O7         -3.5220    1.0790   -2.5920 o         1 MOL     -0.745234
     48 O8         -1.5960    1.8240   -2.8920 o         1 MOL     -0.745234
     49 H21        -2.7190    4.3180   -0.5720 hn        1 MOL     -0.039826
     50 H22        -4.0530    5.2990   -2.8800 h1        1 MOL      0.075465
     51 H23        -2.6920    3.8940   -4.1940 hc        1 MOL      0.092556
     52 H24        -4.3100    3.0700   -4.1700 hc        1 MOL      0.092556
     53 N5         -4.8500    3.3180   -0.4500 n         1 MOL     -0.038458
     54 C17        -5.8640    3.0560    0.6010 c3        1 MOL     -0.436531
     55 C18        -6.5500    1.7230    0.5820 c         1 MOL      0.699734
     56 O9         -7.4000    1.4260    1.3350 o         1 MOL     -0.602992
     57 H25        -3.8730    3.2080   -0.2310 hn        1 MOL      0.280184
     58 H26        -6.6670    3.7650    0.4130 h1        1 MOL      0.162939
     59 H27        -5.4030    3.1810    1.5820 h1        1 MOL      0.162939
     60 N6         -6.1060    0.8510   -0.3020 n         1 MOL     -0.292387
     61 C19        -6.7510   -0.4940   -0.4730 c3        1 MOL     -0.015956
     62 C20        -6.7030   -1.4280    0.7210 c         1 MOL      0.445683
     63 O10        -7.3210   -2.4830    0.7000 o         1 MOL     -0.534054
     64 C21        -6.1490   -1.1180   -1.7740 c3        1 MOL     -0.399764
     65 C22        -4.7440   -1.7870   -1.7060 c         1 MOL      0.620981
     66 N7         -4.3600   -2.5180   -2.7000 n         1 MOL     -0.723185
     67 O11        -3.9360   -1.6970   -0.7860 o         1 MOL     -0.515908
     68 H28        -5.3580    1.1510   -0.8950 hn        1 MOL      0.173620
     69 H29        -7.8020   -0.2350   -0.5950 h1        1 MOL      0.113246
     70 H30        -6.2950   -0.3140   -2.4980 hc        1 MOL      0.144025
     71 H31        -6.8030   -1.9590   -2.0080 hc        1 MOL      0.144025
     72 H32        -4.9880   -2.6380   -3.4810 hn        1 MOL      0.336089
     73 H33        -3.5090   -3.0090   -2.4830 hn        1 MOL      0.336089
     74 N8         -5.9290   -1.0970    1.7880 n         1 MOL     -0.247799
     75 C23        -5.8620   -1.9350    3.0350 c3        1 MOL     -0.106500
     76 C24        -4.6300   -2.8060    3.2160 c         1 MOL      0.459904
     77 O12        -4.4620   -3.2940    4.3260 o         1 MOL     -0.586480
     78 H34        -5.4380   -0.2190    1.7250 hn        1 MOL      0.309179
     79 H35        -6.7240   -2.5970    3.1610 h1        1 MOL      0.097281
     80 H36        -5.9490   -1.2630    3.8860 h1        1 MOL      0.097281
     81 N9         -3.7800   -2.8770    2.2380 n         1 MOL      0.107093
     82 C25        -2.4690   -3.5670    2.3740 c3        1 MOL     -0.257899
     83 C26        -1.2850   -2.8600    1.7010 c         1 MOL      0.722750
     84 O13        -1.4250   -2.0440    0.7840 o         1 MOL     -0.613673
     85 C27        -2.7390   -5.0020    1.9080 c3        1 MOL     -0.008780
     86 C28        -3.3820   -5.1700    0.5590 ca        1 MOL     -0.010876
     87 C29        -4.7550   -5.0230    0.4930 ca        1 MOL     -0.104125
     88 C30        -2.6460   -5.6920   -0.5100 ca        1 MOL     -0.104125
     89 C31        -5.4060   -5.2000   -0.7300 ca        1 MOL     -0.288585
     90 C32        -3.3880   -5.9920   -1.6890 ca        1 MOL     -0.288585
     91 C33        -4.7490   -5.6490   -1.8550 ca        1 MOL      0.408926
     92 O14        -5.3370   -5.9290   -3.0790 oh        1 MOL     -0.572707
     93 H37        -3.8660   -2.1840    1.5090 hn        1 MOL      0.039031
     94 H38        -2.2130   -3.5150    3.4350 h1        1 MOL      0.086098
     95 H39        -3.3970   -5.4450    2.6540 hc        1 MOL      0.046075
     96 H40        -1.8910   -5.6820    1.9780 hc        1 MOL      0.046075
     97 H41        -5.2810   -4.7090    1.3820 ha        1 MOL      0.116075
     98 H42        -1.5890   -5.8990   -0.3840 ha        1 MOL      0.116075
     99 H43        -6.4440   -4.9200   -0.7970 ha        1 MOL      0.130309
    100 H44        -2.8390   -6.4500   -2.4950 ha        1 MOL      0.130309
    101 H45        -6.2680   -5.7270   -3.0040 ho        1 MOL      0.410921
    102 N10        -0.0530   -3.1850    2.0640 n         1 MOL     -0.506275
    103 C34         1.1690   -2.4870    1.5130 c3        1 MOL      0.006311
    104 C35         2.2850   -3.5230    1.1010 c         1 MOL      0.454422
    105 O15         2.3380   -4.5810    1.6810 o         1 MOL     -0.514545
    106 C36         1.7190   -1.5700    2.5970 c3        1 MOL      0.177267
    107 C37         2.1070   -2.2320    3.9790 c3        1 MOL     -0.276600
    108 C38         0.8760   -0.2850    2.7250 c3        1 MOL     -0.782709
    109 C39         2.8500   -1.1540    4.8370 c3        1 MOL     -0.103328
    110 H46         0.0090   -3.8660    2.8090 hn        1 MOL      0.308866
    111 H47         0.9350   -1.8990    0.6340 h1        1 MOL      0.089709
    112 H48         2.6710   -1.2320    2.1810 hc        1 MOL     -0.012366
    113 H49         2.7470   -3.0650    3.7090 hc        1 MOL      0.103095
    114 H50         1.1760   -2.6310    4.3990 hc        1 MOL      0.103095
    115 H51         1.3810    0.5870    3.1630 hc        1 MOL      0.242540
    116 H52         0.6280   -0.0520    1.6850 hc        1 MOL      0.242540
    117 H53        -0.0910   -0.4250    3.2080 hc        1 MOL      0.242540
    118 H54         3.4830   -1.5220    5.6390 hc        1 MOL      0.047512
    119 H55         3.3830   -0.5530    4.1040 hc        1 MOL      0.047512
    120 H56         2.1880   -0.4550    5.3510 hc        1 MOL      0.047512
    121 N11         3.0950   -3.2430    0.0530 n         1 MOL     -0.209123
    122 C40         4.2600   -3.9700   -0.4060 c3        1 MOL      0.022535
    123 C41         5.6490   -3.3620    0.0440 c         1 MOL      0.541051
    124 O16         5.7600   -2.3740    0.7220 o         1 MOL     -0.468079
    125 C42         4.1950   -3.9630   -1.9280 c3        1 MOL     -0.342959
    126 O17         4.2120   -2.7150   -2.5100 oh        1 MOL     -0.406498
    127 H57         2.8000   -2.5140   -0.5940 hn        1 MOL      0.184901
    128 H58         4.2690   -5.0010   -0.0560 h1        1 MOL      0.065461
    129 H59         3.2230   -4.3370   -2.2330 h1        1 MOL      0.150593
    130 H60         4.9900   -4.5350   -2.4020 h1        1 MOL      0.150593
    131 H61         3.5580   -2.7480   -3.2120 ho        1 MOL      0.387805
    132 N12         6.7530   -3.9590   -0.4600 n         1 MOL     -0.465587
    133 C43         8.0990   -3.4460   -0.2060 c3        1 MOL      0.046098
    134 C44         8.3970   -2.1370   -0.9170 c         1 MOL      0.534781
    135 O18         9.0000   -1.2930   -0.2840 o         1 MOL     -0.530556
    136 C45         9.1340   -4.5400   -0.4880 c3        1 MOL     -0.244986
    137 H62         6.6230   -4.8360   -0.9410 hn        1 MOL      0.287557
    138 H63         8.1550   -3.2690    0.8630 h1        1 MOL      0.118931
    139 H64         9.0460   -4.7420   -1.5530 hc        1 MOL      0.080374
    140 H65        10.1270   -4.2100   -0.1960 hc        1 MOL      0.080374
    141 H66         8.9880   -5.4620    0.0720 hc        1 MOL      0.080374
    142 N13         7.8570   -1.8720   -2.0840 n         1 MOL     -0.423507
    143 C46         7.7970   -0.6220   -2.7400 c3        1 MOL      0.123229
    144 C47         7.0500    0.4190   -1.8970 c         1 MOL      0.310882
    145 O19         7.4440    1.6000   -1.8210 o         1 MOL     -0.514317
    146 C48         7.0920   -0.8720   -4.0570 c3        1 MOL     -0.244552
    147 H67         7.1970   -2.5500   -2.4340 hn        1 MOL      0.274271
    148 H68         8.8120   -0.2670   -2.9400 h1        1 MOL      0.093102
    149 H69         6.8160    0.1200   -4.4100 hc        1 MOL      0.063989
    150 H70         7.7710   -1.3440   -4.7610 hc        1 MOL      0.063989
    151 H71         6.1740   -1.4390   -3.8840 hc        1 MOL      0.063989
    152 N14         5.9760   -0.0120   -1.2210 n         1 MOL      0.014928
    153 C49         5.1940    0.9210   -0.3860 c3        1 MOL     -0.241816
    154 C50         5.7330    1.1570    1.0610 c         1 MOL      0.521672
    155 O20         5.4790    2.1680    1.6580 o         1 MOL     -0.567161
    156 C51         3.6620    0.6030   -0.2230 c3        1 MOL      0.148489
    157 C52         2.8230    0.7920   -1.4820 c3        1 MOL     -0.172227
    158 C53         1.4020    0.2590   -1.2860 c         1 MOL      0.903422
    159 O21         1.0040   -0.8470   -1.6640 o         1 MOL     -0.830799
    160 O22         0.4650    0.9550   -0.7790 o         1 MOL     -0.830799
    161 H72         5.6060   -0.8990   -1.5000 hn        1 MOL      0.129042
    162 H73         5.0650    1.9150   -0.8250 h1        1 MOL      0.107800
    163 H74         3.3430    1.3560    0.5040 hc        1 MOL      0.042956
    164 H75         3.5540   -0.3750    0.2490 hc        1 MOL      0.042956
    165 H76         3.1690    0.2370   -2.3580 hc        1 MOL      0.012778
    166 H77         2.7620    1.8400   -1.7480 hc        1 MOL      0.012778
    167 N15         6.5440    0.2200    1.6130 n         1 MOL     -0.148938
    168 C54         7.4330    0.4420    2.7190 c3        1 MOL     -0.240189
    169 H78         7.1470   -0.2040    3.5500 h1        1 MOL      0.092696
    170 H79         8.4540    0.2130    2.4170 h1        1 MOL      0.092696
    171 H80         7.3710    1.4840    3.0320 h1        1 MOL      0.092696
    172 H81         6.5720   -0.7120    1.2020 hn        1 MOL      0.166553
    173 Ca1        -1.6620   -0.4160   -1.3440 Ca        1 MOL      1.801325
    174 O23        -1.7950   -1.0690   -4.0720 oh        1 MOL     -0.803708
    175 H82        -1.8930   -0.3640   -4.7040 ho        1 MOL      0.395684
    176 H83        -2.2990   -1.7990   -4.4520 ho        1 MOL      0.395684
    177 O24        -1.5100   -3.0310   -2.1760 oh        1 MOL     -0.803708
    178 H84        -0.9510   -3.7110   -1.8000 ho        1 MOL      0.395684
    179 H85        -1.5170   -3.2110   -3.1160 ho        1 MOL      0.395684
@<TRIPOS>BOND
     1    1    2 1   
     2    1    4 1   
     3    1    5 1   
     4    1    6 1   
     5    2    3 2   
     6    2    7 1   
     7    7    8 1   
     8    7   15 1   
     9    8    9 1   
    10    8   11 1   
    11    8   16 1   
    12    9   10 2   
    13    9   19 1   
    14   11   12 1   
    15   11   17 1   
    16   11   18 1   
    17   12   13 1   
    18   12   14 1   
    19   19   20 1   
    20   19   28 1   
    21   20   21 1   
    22   20   23 1   
    23   20   29 1   
    24   21   22 2   
    25   21   41 1   
    26   23   24 1   
    27   23   30 1   
    28   23   31 1   
    29   24   25 1   
    30   24   32 1   
    31   24   33 1   
    32   25   26 1   
    33   25   34 1   
    34   25   35 1   
    35   26   27 1   
    36   26   36 1   
    37   26   37 1   
    38   27   38 1   
    39   27   39 1   
    40   27   40 1   
    41   41   42 1   
    42   41   49 1   
    43   42   43 1   
    44   42   45 1   
    45   42   50 1   
    46   43   44 2   
    47   43   53 1   
    48   45   46 1   
    49   45   51 1   
    50   45   52 1   
    51   46   47 1   
    52   46   48 1   
    53   53   54 1   
    54   53   57 1   
    55   54   55 1   
    56   54   58 1   
    57   54   59 1   
    58   55   56 2   
    59   55   60 1   
    60   60   61 1   
    61   60   68 1   
    62   61   62 1   
    63   61   64 1   
    64   61   69 1   
    65   62   63 2   
    66   62   74 1   
    67   64   65 1   
    68   64   70 1   
    69   64   71 1   
    70   65   66 1   
    71   65   67 2   
    72   66   72 1   
    73   66   73 1   
    74   74   75 1   
    75   74   78 1   
    76   75   76 1   
    77   75   79 1   
    78   75   80 1   
    79   76   77 2   
    80   76   81 1   
    81   81   82 1   
    82   81   93 1   
    83   82   83 1   
    84   82   85 1   
    85   82   94 1   
    86   83   84 2   
    87   83  102 1   
    88   85   86 1   
    89   85   95 1   
    90   85   96 1   
    91   86   87 ar  
    92   86   88 ar  
    93   87   89 ar  
    94   87   97 1   
    95   88   90 ar  
    96   88   98 1   
    97   89   91 ar  
    98   89   99 1   
    99   90   91 ar  
   100   90  100 1   
   101   91   92 1   
   102   92  101 1   
   103  102  103 1   
   104  102  110 1   
   105  103  104 1   
   106  103  106 1   
   107  103  111 1   
   108  104  105 2   
   109  104  121 1   
   110  106  107 1   
   111  106  108 1   
   112  106  112 1   
   113  107  109 1   
   114  107  113 1   
   115  107  114 1   
   116  108  115 1   
   117  108  116 1   
   118  108  117 1   
   119  109  118 1   
   120  109  119 1   
   121  109  120 1   
   122  121  122 1   
   123  121  127 1   
   124  122  123 1   
   125  122  125 1   
   126  122  128 1   
   127  123  124 2   
   128  123  132 1   
   129  125  126 1   
   130  125  129 1   
   131  125  130 1   
   132  126  131 1   
   133  132  133 1   
   134  132  137 1   
   135  133  134 1   
   136  133  136 1   
   137  133  138 1   
   138  134  135 2   
   139  134  142 1   
   140  136  139 1   
   141  136  140 1   
   142  136  141 1   
   143  142  143 1   
   144  142  147 1   
   145  143  144 1   
   146  143  146 1   
   147  143  148 1   
   148  144  145 2   
   149  144  152 1   
   150  146  149 1   
   151  146  150 1   
   152  146  151 1   
   153  152  153 1   
   154  152  161 1   
   155  153  154 1   
   156  153  156 1   
   157  153  162 1   
   158  154  155 2   
   159  154  167 1   
   160  156  157 1   
   161  156  163 1   
   162  156  164 1   
   163  157  158 1   
   164  157  165 1   
   165  157  166 1   
   166  158  159 1   
   167  158  160 1   
   168  167  168 1   
   169  167  172 1   
   170  168  169 1   
   171  168  170 1   
   172  168  171 1   
   173  174  175 1   
   174  174  176 1   
   175  177  178 1   
   176  177  179 1   
@<TRIPOS>SUBSTRUCTURE
     1 MOL         1 TEMP              0 ****  ****    0 ROOT
