@<TRIPOS>MOLECULE
MOL
  189   185     1     0     0
SMALL
resp


@<TRIPOS>ATOM
      1 C1          0.6690    1.8010    5.5390 c3        1 MOL     -0.297272
      2 C2          0.0480    1.7750    4.1520 c         1 MOL      0.699451
      3 O1          0.7660    1.9960    3.1620 o         1 MOL     -0.611579
      4 H1          1.6370    2.3020    5.4940 hc        1 MOL      0.071769
      5 H2          0.0120    2.3410    6.2220 hc        1 MOL      0.071769
      6 H3          0.8060    0.7810    5.8970 hc        1 MOL      0.071769
      7 N1         -1.2770    1.6020    3.9860 n         1 MOL     -0.680843
      8 C3         -2.0130    1.4840    2.7020 c3        1 MOL      0.396087
      9 C4         -2.5280    2.8590    2.1880 c         1 MOL      0.353174
     10 O2         -3.6100    3.3120    2.6390 o         1 MOL     -0.524112
     11 C5         -3.0550    0.4020    2.9510 c3        1 MOL     -0.404743
     12 C6         -3.7390   -0.0890    1.7140 c         1 MOL      0.811545
     13 O3         -4.7060   -0.7890    1.8870 o         1 MOL     -0.649043
     14 O4         -3.3010    0.3150    0.6330 o         1 MOL     -0.649043
     15 H4         -1.8140    1.4190    4.8200 hn        1 MOL      0.330543
     16 H5         -1.3680    1.0970    1.9080 h1        1 MOL      0.004372
     17 H6         -3.7890    0.7910    3.6490 hc        1 MOL      0.075181
     18 H7         -2.5950   -0.5350    3.2830 hc        1 MOL      0.075181
     19 N2         -1.7490    3.4550    1.2780 n         1 MOL     -0.255966
     20 C7         -1.9050    4.8550    0.8270 c3        1 MOL      0.057399
     21 C8         -2.9540    5.0000   -0.3290 c         1 MOL      0.367563
     22 O5         -3.6410    6.0240   -0.3970 o         1 MOL     -0.548935
     23 C9         -0.5450    5.5560    0.4270 c3        1 MOL     -0.123755
     24 C10         0.3170    5.8680    1.6300 c3        1 MOL      0.050017
     25 C11        -0.2730    6.5060    2.9110 c3        1 MOL     -0.115410
     26 C12         0.8750    7.1800    3.7680 c3        1 MOL      0.015232
     27 N3          1.6090    6.2100    4.5660 n4        1 MOL     -0.311217
     28 H8         -1.0310    2.8630    0.8960 hn        1 MOL      0.198875
     29 H9         -2.2930    5.4550    1.6500 h1        1 MOL      0.065988
     30 H10        -0.8210    6.4990   -0.0350 hc        1 MOL      0.051574
     31 H11        -0.0560    5.0050   -0.3800 hc        1 MOL      0.051574
     32 H12         1.1800    6.4860    1.3690 hc        1 MOL      0.013220
     33 H13         0.7660    4.9390    1.9580 hc        1 MOL      0.013220
     34 H14        -0.7610    5.7250    3.4960 hc        1 MOL      0.074696
     35 H15        -0.9770    7.3200    2.7410 hc        1 MOL      0.074696
     36 H16         0.4830    7.8810    4.5100 hx        1 MOL      0.080262
     37 H17         1.5650    7.7750    3.1690 hx        1 MOL      0.080262
     38 H18         2.0780    5.5910    3.9380 hn        1 MOL      0.320407
     39 H19         2.2870    6.6340    5.1960 hn        1 MOL      0.320407
     40 H20         1.0110    5.6810    5.1880 hn        1 MOL      0.320407
     41 N4         -3.1510    4.0100   -1.1820 n         1 MOL     -0.167556
     42 C13        -4.2260    4.0710   -2.1270 c3        1 MOL      0.048009
     43 C14        -5.4800    3.3780   -1.5680 c         1 MOL      0.440227
     44 O6         -6.5940    3.6510   -2.0610 o         1 MOL     -0.556295
     45 C15        -3.8480    3.4880   -3.5330 c3        1 MOL     -0.371309
     46 C16        -3.1350    2.1330   -3.4770 c         1 MOL      0.786751
     47 O7         -2.3840    1.8690   -4.4080 o         1 MOL     -0.693934
     48 O8         -3.2130    1.4140   -2.4160 o         1 MOL     -0.693934
     49 H21        -2.6320    3.1460   -1.1410 hn        1 MOL      0.160905
     50 H22        -4.5300    5.0830   -2.3730 h1        1 MOL      0.098310
     51 H23        -3.2030    4.1870   -4.0620 hc        1 MOL      0.099243
     52 H24        -4.7440    3.2860   -4.1120 hc        1 MOL      0.099243
     53 N5         -5.4230    2.4750   -0.5560 n         1 MOL     -0.148003
     54 C17        -6.6450    1.9160    0.0440 c3        1 MOL     -0.242910
     55 C18        -7.1500    0.4990   -0.4790 c         1 MOL      0.571724
     56 O9         -8.2550    0.0830   -0.1440 o         1 MOL     -0.585897
     57 H25        -4.5810    1.9870   -0.2890 hn        1 MOL      0.167608
     58 H26        -7.5170    2.5470   -0.1680 h1        1 MOL      0.122204
     59 H27        -6.5270    1.7900    1.1210 h1        1 MOL      0.122204
     60 N6         -6.4140   -0.2400   -1.3250 n         1 MOL     -0.291429
     61 C19        -6.8720   -1.4260   -2.0340 c3        1 MOL      0.102143
     62 C20        -7.0460   -2.6360   -1.0810 c         1 MOL      0.391758
     63 O10        -7.7170   -3.6090   -1.4940 o         1 MOL     -0.587314
     64 C21        -5.7750   -1.8400   -3.0900 c3        1 MOL     -0.480254
     65 C22        -4.3820   -1.7200   -2.5980 c         1 MOL      0.838369
     66 O11        -4.0920   -1.7920   -1.4220 o         1 MOL     -0.731740
     67 O12        -3.4260   -1.6280   -3.4520 o         1 MOL     -0.731740
     68 H28        -5.4520    0.0520   -1.4760 hn        1 MOL      0.172803
     69 H29        -7.8220   -1.2760   -2.5400 h1        1 MOL      0.090152
     70 H30        -5.9550   -1.1280   -3.9060 hc        1 MOL      0.139381
     71 H31        -6.0610   -2.8700   -3.3140 hc        1 MOL      0.139381
     72 N7         -6.5290   -2.6430    0.1220 n         1 MOL     -0.022804
     73 C23        -6.5260   -3.7020    1.1520 c3        1 MOL     -0.318606
     74 C24        -5.1180   -4.3230    1.3420 c         1 MOL      0.593666
     75 O13        -4.9480   -5.1780    2.2030 o         1 MOL     -0.580762
     76 H32        -6.0140   -1.7890    0.2830 hn        1 MOL      0.141674
     77 H33        -7.2180   -4.4390    0.7520 h1        1 MOL      0.142351
     78 H34        -6.7890   -3.3050    2.1460 h1        1 MOL      0.142351
     79 N8         -4.0930   -3.9050    0.6160 n         1 MOL     -0.289902
     80 C25        -2.7410   -4.4520    0.6920 c3        1 MOL     -0.147456
     81 C26        -1.5950   -3.4100    0.9090 c         1 MOL      0.757059
     82 O14        -1.6820   -2.2620    0.4290 o         1 MOL     -0.641725
     83 C27        -2.4270   -5.3620   -0.5200 c3        1 MOL      0.401535
     84 C28        -3.3750   -6.5710   -0.5250 c3        1 MOL     -0.354741
     85 O15        -2.6040   -4.7030   -1.6890 oh        1 MOL     -0.590224
     86 H35        -4.2350   -3.1930   -0.0870 hn        1 MOL      0.223664
     87 H36        -2.6450   -5.1440    1.5250 h1        1 MOL      0.074515
     88 H37        -1.4120   -5.7430   -0.4730 h1        1 MOL      0.022254
     89 H38        -3.5450   -4.5060   -1.7460 ho        1 MOL      0.399006
     90 H39        -2.9550   -7.4790   -0.9740 hc        1 MOL      0.085275
     91 H40        -3.6670   -6.8460    0.4890 hc        1 MOL      0.085275
     92 H41        -4.1830   -6.3860   -1.2320 hc        1 MOL      0.085275
     93 N9         -0.5140   -3.7360    1.6180 n         1 MOL     -0.669911
     94 C29         0.6630   -2.9440    1.8390 c3        1 MOL      0.005475
     95 C30         1.7660   -3.4820    0.8650 c         1 MOL      0.544997
     96 O16         2.0280   -4.6940    0.8860 o         1 MOL     -0.565219
     97 C31         1.0580   -3.2210    3.3210 c3        1 MOL      0.188850
     98 C32        -0.0870   -2.7340    4.3070 c3        1 MOL      0.235036
     99 C33         2.4740   -2.7020    3.7140 c3        1 MOL     -0.139634
    100 C34        -0.0600   -3.3870    5.6550 c3        1 MOL     -0.364463
    101 H42        -0.5780   -4.5700    2.1890 hn        1 MOL      0.303490
    102 H43         0.5550   -1.8560    1.8280 h1        1 MOL      0.120069
    103 H44         1.0950   -4.2780    3.5870 hc        1 MOL     -0.023473
    104 H45        -1.0720   -3.0180    3.9410 hc        1 MOL     -0.020892
    105 H46        -0.0860   -1.6430    4.3480 hc        1 MOL     -0.020892
    106 H47         3.2150   -3.3180    3.2090 hc        1 MOL      0.006496
    107 H48         2.6510   -1.7110    3.2970 hc        1 MOL      0.006496
    108 H49         2.6470   -2.7120    4.7870 hc        1 MOL      0.006496
    109 H50        -0.8000   -2.8560    6.2560 hc        1 MOL      0.081257
    110 H51        -0.4620   -4.4000    5.6590 hc        1 MOL      0.081257
    111 H52         0.9400   -3.3380    6.0910 hc        1 MOL      0.081257
    112 N10         2.3600   -2.5950    0.0910 n         1 MOL     -0.254922
    113 C35         3.4900   -2.8680   -0.7540 c3        1 MOL     -0.062832
    114 C36         4.8820   -2.6040   -0.1400 c         1 MOL      0.418801
    115 O17         5.0190   -1.9000    0.9010 o         1 MOL     -0.352980
    116 C37         3.3250   -2.0800   -2.0860 c3        1 MOL      0.157841
    117 C38         1.9680   -2.2640   -2.7620 c3        1 MOL     -0.466070
    118 O18         3.7120   -0.7170   -1.9590 oh        1 MOL     -0.305914
    119 H53         2.0010   -1.6470    0.1830 hn        1 MOL      0.347015
    120 H54         3.4560   -3.8860   -1.1520 h1        1 MOL      0.084241
    121 H55         4.0460   -2.5240   -2.7830 h1        1 MOL     -0.008228
    122 H56         3.9570   -0.3200   -2.7960 ho        1 MOL      0.286302
    123 H57         1.6380   -3.3090   -2.7630 hc        1 MOL      0.135781
    124 H58         1.2680   -1.6020   -2.2560 hc        1 MOL      0.135781
    125 H59         2.1040   -1.9990   -3.8140 hc        1 MOL      0.135781
    126 N11         5.8810   -3.1220   -0.8170 n         1 MOL     -0.332551
    127 C39         7.2170   -2.7330   -0.4790 c3        1 MOL     -0.129970
    128 C40         7.4740   -1.2750   -0.5620 c         1 MOL      0.271366
    129 O19         8.0600   -0.7490    0.3870 o         1 MOL     -0.438328
    130 C41         8.2230   -3.5210   -1.3790 c3        1 MOL      0.563450
    131 C42         9.5100   -3.9550   -0.6930 c3        1 MOL     -0.431483
    132 O20         7.7370   -4.8620   -1.7000 oh        1 MOL     -0.579553
    133 H60         5.6930   -3.6550   -1.6560 hn        1 MOL      0.243863
    134 H61         7.3620   -3.1100    0.5400 h1        1 MOL      0.133756
    135 H62         8.3830   -3.0000   -2.3120 h1        1 MOL     -0.070176
    136 H63         7.0250   -4.6590   -2.3190 ho        1 MOL      0.324498
    137 H64         9.3250   -4.2760    0.3390 hc        1 MOL      0.121593
    138 H65         9.9690   -4.8160   -1.1780 hc        1 MOL      0.121593
    139 H66        10.2690   -3.2010   -0.8630 hc        1 MOL      0.121593
    140 N12         7.0660   -0.5650   -1.6310 n         1 MOL     -0.120374
    141 C43         6.9460    0.9170   -1.7130 c3        1 MOL     -0.362768
    142 C44         6.2470    1.4810   -0.4270 c         1 MOL      0.491260
    143 O21         6.6860    2.4440    0.1830 o         1 MOL     -0.545959
    144 C45         6.3030    1.3350   -3.0080 c3        1 MOL      0.004096
    145 C46         6.2340    2.7940   -3.3940 c3        1 MOL     -0.011512
    146 C47         5.3360    2.9390   -4.6500 c3        1 MOL      0.126132
    147 C48         5.3990    4.3870   -5.1340 c3        1 MOL      0.018066
    148 N13         4.2330    4.7210   -5.9810 n4        1 MOL     -0.347155
    149 H67         6.7970   -1.1100   -2.4280 hn        1 MOL      0.170744
    150 H68         7.9750    1.2790   -1.7040 h1        1 MOL      0.173197
    151 H69         5.3310    0.8730   -2.9270 hc        1 MOL      0.029800
    152 H70         6.7420    0.8380   -3.8690 hc        1 MOL      0.029800
    153 H71         7.2380    3.1710   -3.6130 hc        1 MOL      0.030651
    154 H72         5.7760    3.2790   -2.5280 hc        1 MOL      0.030651
    155 H73         4.3120    2.6840   -4.3700 hc        1 MOL     -0.020489
    156 H74         5.7470    2.2440   -5.3820 hc        1 MOL     -0.020489
    157 H75         6.3360    4.4890   -5.6970 hx        1 MOL      0.084798
    158 H76         5.3810    5.0000   -4.2300 hx        1 MOL      0.084798
    159 H77         3.3270    4.4020   -5.6520 hn        1 MOL      0.307383
    160 H78         4.1030    5.7200   -5.9800 hn        1 MOL      0.307383
    161 H79         4.3340    4.4560   -6.9530 hn        1 MOL      0.307383
    162 N14         5.1160    0.9540    0.0020 n         1 MOL      0.154650
    163 C49         4.2530    1.4920    1.0620 c3        1 MOL     -0.204057
    164 C50         4.9030    1.3460    2.4370 c         1 MOL      0.550367
    165 O22         4.8370    2.3270    3.2240 o         1 MOL     -0.615288
    166 C51         2.8300    0.8280    1.0010 c3        1 MOL      0.209273
    167 C52         1.8290    1.7230    0.2100 c3        1 MOL     -0.323506
    168 C53         0.5480    0.9790   -0.0970 c         1 MOL      0.713097
    169 O23        -0.4580    1.6890   -0.4500 o         1 MOL     -0.726398
    170 O24         0.3970   -0.2520   -0.1720 o         1 MOL     -0.726398
    171 H80         4.6610    0.2110   -0.5170 hn        1 MOL     -0.046978
    172 H81         4.0500    2.5430    0.8580 h1        1 MOL      0.049884
    173 H82         2.4070    0.5610    1.9670 hc        1 MOL     -0.054997
    174 H83         3.0920   -0.0880    0.4760 hc        1 MOL     -0.054997
    175 H84         2.2790    2.0870   -0.7200 hc        1 MOL      0.073532
    176 H85         1.6310    2.5560    0.8830 hc        1 MOL      0.073532
    177 N15         5.4080    0.2110    2.7850 n         1 MOL     -0.190870
    178 C54         6.4100    0.0500    3.8900 c3        1 MOL     -0.257374
    179 H86         6.2970    0.8640    4.6050 h1        1 MOL      0.111455
    180 H87         6.2450   -0.9020    4.3950 h1        1 MOL      0.111455
    181 H88         7.4170    0.0700    3.4730 h1        1 MOL      0.111455
    182 H89         5.3840   -0.5320    2.0970 hn        1 MOL      0.175717
    183 Ca1        -1.8840   -0.3390   -1.3060 Ca        1 MOL      1.695867
    184 O25        -0.2550    0.3960   -3.3380 oh        1 MOL     -0.801555
    185 H90        -0.6240    0.9350   -4.0340 ho        1 MOL      0.379712
    186 H91         0.6140    0.1590   -3.6500 ho        1 MOL      0.379712
    187 O26        -0.8780   -2.5750   -2.5630 oh        1 MOL     -0.801555
    188 H92        -0.4360   -2.9260   -3.3320 ho        1 MOL      0.379712
    189 H93        -1.6460   -3.1430   -2.4510 ho        1 MOL      0.379712
@<TRIPOS>BOND
     1    1    2 1   
     2    1    4 1   
     3    1    5 1   
     4    1    6 1   
     5    2    3 2   
     6    2    7 1   
     7    7    8 1   
     8    7   15 1   
     9    8    9 1   
    10    8   11 1   
    11    8   16 1   
    12    9   10 2   
    13    9   19 1   
    14   11   12 1   
    15   11   17 1   
    16   11   18 1   
    17   12   13 1   
    18   12   14 1   
    19   19   20 1   
    20   19   28 1   
    21   20   21 1   
    22   20   23 1   
    23   20   29 1   
    24   21   22 2   
    25   21   41 1   
    26   23   24 1   
    27   23   30 1   
    28   23   31 1   
    29   24   25 1   
    30   24   32 1   
    31   24   33 1   
    32   25   26 1   
    33   25   34 1   
    34   25   35 1   
    35   26   27 1   
    36   26   36 1   
    37   26   37 1   
    38   27   38 1   
    39   27   39 1   
    40   27   40 1   
    41   41   42 1   
    42   41   49 1   
    43   42   43 1   
    44   42   45 1   
    45   42   50 1   
    46   43   44 2   
    47   43   53 1   
    48   45   46 1   
    49   45   51 1   
    50   45   52 1   
    51   46   47 1   
    52   46   48 1   
    53   53   54 1   
    54   53   57 1   
    55   54   55 1   
    56   54   58 1   
    57   54   59 1   
    58   55   56 2   
    59   55   60 1   
    60   60   61 1   
    61   60   68 1   
    62   61   62 1   
    63   61   64 1   
    64   61   69 1   
    65   62   63 2   
    66   62   72 1   
    67   64   65 1   
    68   64   70 1   
    69   64   71 1   
    70   65   66 1   
    71   65   67 1   
    72   72   73 1   
    73   72   76 1   
    74   73   74 1   
    75   73   77 1   
    76   73   78 1   
    77   74   75 2   
    78   74   79 1   
    79   79   80 1   
    80   79   86 1   
    81   80   81 1   
    82   80   83 1   
    83   80   87 1   
    84   81   82 2   
    85   81   93 1   
    86   83   84 1   
    87   83   85 1   
    88   83   88 1   
    89   84   90 1   
    90   84   91 1   
    91   84   92 1   
    92   85   89 1   
    93   93   94 1   
    94   93  101 1   
    95   94   95 1   
    96   94   97 1   
    97   94  102 1   
    98   95   96 2   
    99   95  112 1   
   100   97   98 1   
   101   97   99 1   
   102   97  103 1   
   103   98  100 1   
   104   98  104 1   
   105   98  105 1   
   106   99  106 1   
   107   99  107 1   
   108   99  108 1   
   109  100  109 1   
   110  100  110 1   
   111  100  111 1   
   112  112  113 1   
   113  112  119 1   
   114  113  114 1   
   115  113  116 1   
   116  113  120 1   
   117  114  115 2   
   118  114  126 1   
   119  116  117 1   
   120  116  118 1   
   121  116  121 1   
   122  117  123 1   
   123  117  124 1   
   124  117  125 1   
   125  118  122 1   
   126  126  127 1   
   127  126  133 1   
   128  127  128 1   
   129  127  130 1   
   130  127  134 1   
   131  128  129 2   
   132  128  140 1   
   133  130  131 1   
   134  130  132 1   
   135  130  135 1   
   136  131  137 1   
   137  131  138 1   
   138  131  139 1   
   139  132  136 1   
   140  140  141 1   
   141  140  149 1   
   142  141  142 1   
   143  141  144 1   
   144  141  150 1   
   145  142  143 2   
   146  142  162 1   
   147  144  145 1   
   148  144  151 1   
   149  144  152 1   
   150  145  146 1   
   151  145  153 1   
   152  145  154 1   
   153  146  147 1   
   154  146  155 1   
   155  146  156 1   
   156  147  148 1   
   157  147  157 1   
   158  147  158 1   
   159  148  159 1   
   160  148  160 1   
   161  148  161 1   
   162  162  163 1   
   163  162  171 1   
   164  163  164 1   
   165  163  166 1   
   166  163  172 1   
   167  164  165 2   
   168  164  177 1   
   169  166  167 1   
   170  166  173 1   
   171  166  174 1   
   172  167  168 1   
   173  167  175 1   
   174  167  176 1   
   175  168  169 1   
   176  168  170 1   
   177  177  178 1   
   178  177  182 1   
   179  178  179 1   
   180  178  180 1   
   181  178  181 1   
   182  184  185 1   
   183  184  186 1   
   184  187  188 1   
   185  187  189 1   
@<TRIPOS>SUBSTRUCTURE
     1 MOL         1 TEMP              0 ****  ****    0 ROOT
