@<TRIPOS>MOLECULE
MOL
  175   173     1     0     0
SMALL
resp


@<TRIPOS>ATOM
      1 C1          0.9070    4.6910    5.0540 c3        1 MOL     -0.339886
      2 C2          0.1700    4.4390    3.6930 c         1 MOL      0.764247
      3 O1          0.6750    4.8550    2.6530 o         1 MOL     -0.566016
      4 H1          1.2910    3.7460    5.4390 hc        1 MOL      0.077605
      5 H2          1.7350    5.3820    4.8980 hc        1 MOL      0.077605
      6 H3          0.2070    5.1180    5.7730 hc        1 MOL      0.077605
      7 N1         -1.0610    3.8750    3.7090 n         1 MOL     -0.728425
      8 C3         -1.7820    3.5250    2.5220 c3        1 MOL      0.226600
      9 C4         -2.0590    4.7020    1.5490 c         1 MOL      0.678101
     10 O2         -2.4620    5.7690    2.0340 o         1 MOL     -0.601968
     11 C5         -3.1010    2.8540    3.0230 c3        1 MOL     -0.451525
     12 C6         -3.9540    2.3580    1.7810 c         1 MOL      0.757106
     13 O3         -5.1580    2.3120    1.8830 o         1 MOL     -0.655075
     14 O4         -3.4210    2.0880    0.6910 o         1 MOL     -0.655075
     15 H4         -1.5490    3.8930    4.5920 hn        1 MOL      0.348275
     16 H5         -1.1740    2.7510    2.0540 h1        1 MOL      0.054055
     17 H6         -3.6260    3.6050    3.6110 hc        1 MOL      0.104128
     18 H7         -2.9440    2.0920    3.7740 hc        1 MOL      0.104128
     19 N2         -1.9040    4.4850    0.2190 n         1 MOL     -0.579811
     20 C7         -2.2720    5.5680   -0.7920 c3        1 MOL      0.281758
     21 C8         -3.4910    5.1720   -1.6690 c         1 MOL      0.372833
     22 O5         -4.0190    6.0770   -2.3070 o         1 MOL     -0.558350
     23 C9         -1.0740    5.7630   -1.6830 c3        1 MOL     -0.206522
     24 H8         -1.5180    3.6280   -0.1340 hn        1 MOL      0.301048
     25 H9         -2.4260    6.5040   -0.2640 h1        1 MOL      0.025363
     26 H10        -0.6580    4.7800   -1.9010 hc        1 MOL      0.049197
     27 H11        -1.3170    6.4730   -2.4770 hc        1 MOL      0.049197
     28 H12        -0.2620    6.2310   -1.1320 hc        1 MOL      0.049197
     29 N3         -3.9050    3.8960   -1.6830 n         1 MOL     -0.193471
     30 C10        -4.8350    3.2640   -2.7100 c3        1 MOL     -0.046842
     31 C11        -6.0770    2.4400   -2.2880 c         1 MOL      0.365078
     32 O6         -6.9810    2.1800   -3.0870 o         1 MOL     -0.549290
     33 C12        -4.0900    2.3630   -3.7510 c3        1 MOL      0.000355
     34 C13        -3.4130    1.1510   -3.1460 c         1 MOL      0.670824
     35 O7         -2.4170    0.7640   -3.7900 o         1 MOL     -0.698558
     36 O8         -3.8100    0.7010   -2.0640 o         1 MOL     -0.698558
     37 H13        -3.5660    3.3150   -0.9210 hn        1 MOL      0.157474
     38 H14        -5.2200    4.1160   -3.2730 h1        1 MOL      0.089473
     39 H15        -3.3560    3.0380   -4.2010 hc        1 MOL      0.008251
     40 H16        -4.6590    2.0990   -4.6450 hc        1 MOL      0.008251
     41 N4         -6.1700    2.0430   -1.0150 n         1 MOL     -0.128662
     42 C14        -7.2560    1.3060   -0.4480 c3        1 MOL     -0.200406
     43 C15        -7.2490   -0.2720   -0.7420 c         1 MOL      0.469557
     44 O9         -8.2880   -0.8900   -0.4270 o         1 MOL     -0.621024
     45 H17        -5.3710    2.2590   -0.4410 hn        1 MOL      0.127551
     46 H18        -8.1890    1.7060   -0.8300 h1        1 MOL      0.105049
     47 H19        -7.2320    1.4490    0.6340 h1        1 MOL      0.105049
     48 N5         -6.1850   -0.8020   -1.2650 n         1 MOL     -0.165456
     49 C16        -6.2380   -2.1580   -1.8480 c3        1 MOL      0.021181
     50 C17        -6.2180   -3.2740   -0.7530 c         1 MOL      0.374991
     51 O10        -5.9870   -4.4250   -1.1500 o         1 MOL     -0.491176
     52 C18        -5.0690   -2.3730   -2.9050 c3        1 MOL     -0.258359
     53 C19        -3.6460   -2.3690   -2.3820 c         1 MOL      0.426325
     54 N6         -2.6630   -2.5200   -3.2350 n         1 MOL     -0.424999
     55 O11        -3.4000   -2.1910   -1.1770 o         1 MOL     -0.461871
     56 H20        -5.3940   -0.1920   -1.4140 hn        1 MOL      0.200352
     57 H21        -7.1410   -2.3760   -2.4240 h1        1 MOL      0.088828
     58 H22        -5.1700   -1.5630   -3.6220 hc        1 MOL      0.089510
     59 H23        -5.2940   -3.3280   -3.3900 hc        1 MOL      0.089510
     60 H24        -2.9050   -2.6190   -4.2090 hn        1 MOL      0.271245
     61 H25        -1.6900   -2.6470   -2.9790 hn        1 MOL      0.271245
     62 N7         -6.3870   -2.9120    0.4860 n         1 MOL     -0.172484
     63 C20        -6.4030   -3.8210    1.6050 c3        1 MOL     -0.153212
     64 C21        -5.0700   -4.5580    1.8300 c         1 MOL      0.500053
     65 O12        -5.0240   -5.6350    2.4360 o         1 MOL     -0.592360
     66 H26        -6.3890   -1.9190    0.6890 hn        1 MOL      0.243815
     67 H27        -7.1780   -4.5880    1.4950 h1        1 MOL      0.083083
     68 H28        -6.6990   -3.1750    2.4250 h1        1 MOL      0.083083
     69 N8         -3.9960   -4.0290    1.3360 n         1 MOL     -0.139885
     70 C22        -2.6270   -4.5450    1.5130 c3        1 MOL     -0.151800
     71 C23        -1.5620   -3.4530    1.5880 c         1 MOL      0.642278
     72 O13        -1.8640   -2.3580    1.0540 o         1 MOL     -0.586840
     73 C24        -2.1100   -5.4330    0.3840 c3        1 MOL      0.722316
     74 C25        -2.8150   -6.7370    0.4380 c3        1 MOL     -0.379550
     75 O14        -2.2410   -4.8300   -0.9090 oh        1 MOL     -0.657891
     76 H29        -4.1690   -3.1910    0.8100 hn        1 MOL      0.098045
     77 H30        -2.4990   -5.1720    2.4020 h1        1 MOL      0.046880
     78 H31        -1.0540   -5.5600    0.6130 h1        1 MOL     -0.114545
     79 H32        -1.7870   -3.9940   -0.9560 ho        1 MOL      0.345114
     80 H33        -2.4470   -7.2550    1.3210 hc        1 MOL      0.075115
     81 H34        -3.8740   -6.5720    0.2720 hc        1 MOL      0.075115
     82 H35        -2.2420   -7.2390   -0.3550 hc        1 MOL      0.075115
     83 N9         -0.4740   -3.6530    2.3760 n         1 MOL     -0.659937
     84 C26         0.6740   -2.7590    2.2680 c3        1 MOL      0.082117
     85 C27         1.4420   -3.1420    1.0130 c         1 MOL      0.480690
     86 O15         1.8820   -4.2770    0.8220 o         1 MOL     -0.568084
     87 C28         1.4970   -2.6100    3.5670 c3        1 MOL      0.033683
     88 C29         0.9150   -1.4290    4.4200 c3        1 MOL      0.078305
     89 C30         3.0160   -2.2950    3.2690 c3        1 MOL     -0.158111
     90 C31         1.4910   -1.2170    5.8450 c3        1 MOL     -0.269977
     91 H36        -0.2070   -4.6010    2.5700 hn        1 MOL      0.331790
     92 H37         0.3820   -1.7330    2.0540 h1        1 MOL      0.043355
     93 H38         1.4560   -3.5150    4.1710 hc        1 MOL      0.029973
     94 H39        -0.1720   -1.4920    4.4570 hc        1 MOL      0.004226
     95 H40         1.0200   -0.5660    3.7660 hc        1 MOL      0.004226
     96 H41         3.4720   -3.0550    2.6360 hc        1 MOL      0.035924
     97 H42         3.1520   -1.3300    2.7770 hc        1 MOL      0.035924
     98 H43         3.5790   -2.3630    4.2010 hc        1 MOL      0.035924
     99 H44         2.5670   -1.0730    5.7700 hc        1 MOL      0.064912
    100 H45         1.0610   -0.3110    6.2860 hc        1 MOL      0.064912
    101 H46         1.3890   -2.1390    6.4110 hc        1 MOL      0.064912
    102 N10         1.8510   -2.1040    0.2780 n         1 MOL     -0.275197
    103 C32         2.6860   -2.1930   -0.9530 c3        1 MOL      0.301267
    104 C33         4.1020   -1.6250   -0.6410 c         1 MOL      0.201986
    105 O16         4.3300   -0.9870    0.3710 o         1 MOL     -0.200011
    106 C34         1.9880   -1.4280   -2.0840 c3        1 MOL     -0.375099
    107 C35         0.4510   -1.7280   -2.1540 c         1 MOL      0.756597
    108 O17        -0.4160   -0.9940   -1.5440 o         1 MOL     -0.674475
    109 O18         0.0410   -2.6640   -2.8400 o         1 MOL     -0.674475
    110 H47         1.5500   -1.1720    0.5260 hn        1 MOL      0.172720
    111 H48         2.7570   -3.2400   -1.2570 h1        1 MOL      0.020049
    112 H49         2.5230   -1.7090   -2.9980 hc        1 MOL      0.087434
    113 H50         1.9790   -0.3480   -1.9330 hc        1 MOL      0.087434
    114 N11         5.0810   -2.0050   -1.4430 n         1 MOL     -0.498628
    115 C36         6.4570   -1.5540   -1.2210 c3        1 MOL      0.271244
    116 C37         6.7520   -0.0420   -1.2370 c         1 MOL      0.334701
    117 O19         7.5290    0.3590   -0.3610 o         1 MOL     -0.473468
    118 C38         7.3720   -2.4770   -2.0420 c3        1 MOL     -0.196424
    119 C39         8.7890   -2.2950   -1.6890 ca        1 MOL      0.154050
    120 C40         9.7310   -1.7650   -2.5530 ca        1 MOL     -0.173792
    121 C41         9.2220   -2.7740   -0.4440 ca        1 MOL     -0.173792
    122 C42        11.0850   -1.5930   -2.1960 ca        1 MOL     -0.112582
    123 C43        10.5510   -2.6370   -0.0930 ca        1 MOL     -0.112582
    124 C44        11.5300   -2.0300   -0.9060 ca        1 MOL     -0.140871
    125 H51         4.8960   -2.6460   -2.2090 hn        1 MOL      0.320839
    126 H52         6.7150   -1.7270   -0.1710 h1        1 MOL      0.076681
    127 H53         7.3130   -2.2550   -3.1110 hc        1 MOL      0.055682
    128 H54         7.0860   -3.5170   -1.8930 hc        1 MOL      0.055682
    129 H55         9.4620   -1.3830   -3.5250 ha        1 MOL      0.116419
    130 H56         8.5380   -3.2190    0.2570 ha        1 MOL      0.116419
    131 H57        11.7420   -1.0220   -2.8340 ha        1 MOL      0.110323
    132 H58        10.8260   -2.9550    0.9000 ha        1 MOL      0.110323
    133 H59        12.5330   -1.8300   -0.5500 ha        1 MOL      0.119425
    134 N12         6.2730    0.8520   -2.1040 n         1 MOL     -0.120307
    135 C45         6.4790    2.3030   -1.9310 c3        1 MOL     -0.126950
    136 C46         5.7350    2.8440   -0.6890 c         1 MOL      0.427881
    137 O20         6.1740    3.8760   -0.1840 o         1 MOL     -0.498822
    138 C47         5.8700    2.9770   -3.1740 c3        1 MOL     -0.144751
    139 C48         4.7950    2.0660   -3.5840 c3        1 MOL      0.087572
    140 C49         5.3290    0.7060   -3.2420 c3        1 MOL     -0.054256
    141 H60         7.5530    2.4470   -1.8580 h1        1 MOL      0.123371
    142 H61         5.5660    4.0270   -3.0820 hc        1 MOL      0.076262
    143 H62         6.5610    2.9070   -4.0070 hc        1 MOL      0.076262
    144 H63         3.8890    2.2700   -3.0120 hc        1 MOL      0.009357
    145 H64         4.6230    2.1220   -4.6560 hc        1 MOL      0.009357
    146 H65         4.5530   -0.0320   -3.0100 h1        1 MOL      0.031492
    147 H66         5.8200    0.3220   -4.1380 h1        1 MOL      0.031492
    148 N13         4.6780    2.1900   -0.1580 n         1 MOL     -0.187862
    149 C50         4.0320    2.4770    1.1250 c3        1 MOL     -0.173487
    150 C51         4.9340    2.1410    2.2830 c         1 MOL      0.446389
    151 O21         5.2450    2.9040    3.2020 o         1 MOL     -0.530018
    152 C52         2.6980    1.8320    1.2080 c3        1 MOL      0.073368
    153 C53         1.7660    2.3340    0.1050 c3        1 MOL     -0.028171
    154 C54         0.4220    1.6270    0.0740 c         1 MOL      0.546525
    155 O22        -0.5290    2.0730   -0.6560 o         1 MOL     -0.672633
    156 O23         0.2020    0.5930    0.7370 o         1 MOL     -0.672633
    157 H67         4.4530    1.3390   -0.6540 hn        1 MOL      0.249262
    158 H68         3.8220    3.5490    1.1390 h1        1 MOL      0.122112
    159 H69         2.3070    2.0420    2.2030 hc        1 MOL      0.009076
    160 H70         2.9070    0.7710    1.1200 hc        1 MOL      0.009076
    161 H71         2.1860    2.1010   -0.8700 hc        1 MOL      0.032518
    162 H72         1.6800    3.4180    0.1930 hc        1 MOL      0.032518
    163 N14         5.5900    0.9430    2.1400 n         1 MOL      0.016704
    164 C55         6.5980    0.3450    3.0700 c3        1 MOL     -0.256954
    165 H73         6.5750   -0.7410    2.9810 h1        1 MOL      0.095073
    166 H74         7.5920    0.7100    2.8120 h1        1 MOL      0.095073
    167 H75         6.3600    0.6290    4.0950 h1        1 MOL      0.095073
    168 H76         5.2080    0.3850    1.3940 hn        1 MOL     -0.099012
    169 Ca1        -2.2640    0.0170   -0.2180 Ca        1 MOL      1.681304
    170 O24        -1.6550    0.2410    2.4630 oh        1 MOL     -0.724911
    171 H77        -1.6250    0.0500    3.4040 ho        1 MOL      0.354414
    172 H78        -0.7370    0.3170    2.2110 ho        1 MOL      0.354414
    173 O25        -4.8280   -0.5260    1.5670 oh        1 MOL     -0.724911
    174 H79        -5.0110    0.4170    1.6580 ho        1 MOL      0.354414
    175 H80        -5.0410   -0.8990    2.4200 ho        1 MOL      0.354414
@<TRIPOS>BOND
     1    1    2 1   
     2    1    4 1   
     3    1    5 1   
     4    1    6 1   
     5    2    3 2   
     6    2    7 1   
     7    7    8 1   
     8    7   15 1   
     9    8    9 1   
    10    8   11 1   
    11    8   16 1   
    12    9   10 2   
    13    9   19 1   
    14   11   12 1   
    15   11   17 1   
    16   11   18 1   
    17   12   13 1   
    18   12   14 1   
    19   19   20 1   
    20   19   24 1   
    21   20   21 1   
    22   20   23 1   
    23   20   25 1   
    24   21   22 2   
    25   21   29 1   
    26   23   26 1   
    27   23   27 1   
    28   23   28 1   
    29   29   30 1   
    30   29   37 1   
    31   30   31 1   
    32   30   33 1   
    33   30   38 1   
    34   31   32 2   
    35   31   41 1   
    36   33   34 1   
    37   33   39 1   
    38   33   40 1   
    39   34   35 1   
    40   34   36 1   
    41   41   42 1   
    42   41   45 1   
    43   42   43 1   
    44   42   46 1   
    45   42   47 1   
    46   43   44 2   
    47   43   48 1   
    48   48   49 1   
    49   48   56 1   
    50   49   50 1   
    51   49   52 1   
    52   49   57 1   
    53   50   51 2   
    54   50   62 1   
    55   52   53 1   
    56   52   58 1   
    57   52   59 1   
    58   53   54 1   
    59   53   55 2   
    60   54   60 1   
    61   54   61 1   
    62   62   63 1   
    63   62   66 1   
    64   63   64 1   
    65   63   67 1   
    66   63   68 1   
    67   64   65 2   
    68   64   69 1   
    69   69   70 1   
    70   69   76 1   
    71   70   71 1   
    72   70   73 1   
    73   70   77 1   
    74   71   72 2   
    75   71   83 1   
    76   73   74 1   
    77   73   75 1   
    78   73   78 1   
    79   74   80 1   
    80   74   81 1   
    81   74   82 1   
    82   75   79 1   
    83   83   84 1   
    84   83   91 1   
    85   84   85 1   
    86   84   87 1   
    87   84   92 1   
    88   85   86 2   
    89   85  102 1   
    90   87   88 1   
    91   87   89 1   
    92   87   93 1   
    93   88   90 1   
    94   88   94 1   
    95   88   95 1   
    96   89   96 1   
    97   89   97 1   
    98   89   98 1   
    99   90   99 1   
   100   90  100 1   
   101   90  101 1   
   102  102  103 1   
   103  102  110 1   
   104  103  104 1   
   105  103  106 1   
   106  103  111 1   
   107  104  105 2   
   108  104  114 1   
   109  106  107 1   
   110  106  112 1   
   111  106  113 1   
   112  107  108 1   
   113  107  109 1   
   114  114  115 1   
   115  114  125 1   
   116  115  116 1   
   117  115  118 1   
   118  115  126 1   
   119  116  117 2   
   120  116  134 1   
   121  118  119 1   
   122  118  127 1   
   123  118  128 1   
   124  119  120 ar  
   125  119  121 ar  
   126  120  122 ar  
   127  120  129 1   
   128  121  123 ar  
   129  121  130 1   
   130  122  124 ar  
   131  122  131 1   
   132  123  124 ar  
   133  123  132 1   
   134  124  133 1   
   135  134  135 1   
   136  134  140 1   
   137  135  136 1   
   138  135  138 1   
   139  135  141 1   
   140  136  137 2   
   141  136  148 1   
   142  138  139 1   
   143  138  142 1   
   144  138  143 1   
   145  139  140 1   
   146  139  144 1   
   147  139  145 1   
   148  140  146 1   
   149  140  147 1   
   150  148  149 1   
   151  148  157 1   
   152  149  150 1   
   153  149  152 1   
   154  149  158 1   
   155  150  151 2   
   156  150  163 1   
   157  152  153 1   
   158  152  159 1   
   159  152  160 1   
   160  153  154 1   
   161  153  161 1   
   162  153  162 1   
   163  154  155 1   
   164  154  156 1   
   165  163  164 1   
   166  163  168 1   
   167  164  165 1   
   168  164  166 1   
   169  164  167 1   
   170  170  171 1   
   171  170  172 1   
   172  173  174 1   
   173  173  175 1   
@<TRIPOS>SUBSTRUCTURE
     1 MOL         1 TEMP              0 ****  ****    0 ROOT
