@<TRIPOS>MOLECULE
MOL
  183   181     1     0     0
SMALL
resp


@<TRIPOS>ATOM
      1 C1         -0.2940    2.5810    6.1930 c3        1 MOL     -0.274581
      2 C2         -0.7410    2.4530    4.7390 c         1 MOL      0.871853
      3 O1          0.0550    2.8380    3.9070 o         1 MOL     -0.636401
      4 H1          0.0600    1.6140    6.5510 hc        1 MOL      0.057900
      5 H2          0.5120    3.3110    6.2630 hc        1 MOL      0.057900
      6 H3         -1.1350    2.9070    6.8050 hc        1 MOL      0.057900
      7 N1         -1.9400    1.9700    4.3630 n         1 MOL     -0.791028
      8 C3         -2.3430    2.0230    2.9670 c3        1 MOL      0.079691
      9 C4         -2.6230    3.5040    2.6000 c         1 MOL      0.622590
     10 O2         -3.1430    4.3540    3.2940 o         1 MOL     -0.570322
     11 C5         -3.5390    1.0140    2.7600 c3        1 MOL     -0.197157
     12 C6         -4.0450    0.8450    1.3510 c         1 MOL      0.962240
     13 O3         -4.2210   -0.2370    0.7990 o         1 MOL     -0.834723
     14 O4         -4.2910    1.8530    0.6500 o         1 MOL     -0.834723
     15 H4         -2.6420    1.7530    5.0520 hn        1 MOL      0.366899
     16 H5         -1.5170    1.6300    2.3780 h1        1 MOL      0.122545
     17 H6         -4.3990    1.3410    3.3530 hc        1 MOL      0.034348
     18 H7         -3.2120    0.0700    3.2020 hc        1 MOL      0.034348
     19 N2         -2.2070    3.8220    1.3350 n         1 MOL     -0.360585
     20 C7         -2.2350    5.1610    0.8370 c3        1 MOL     -0.295067
     21 C8         -2.8580    5.0690   -0.5680 c         1 MOL      0.604228
     22 O5         -2.6370    5.9470   -1.3820 o         1 MOL     -0.573622
     23 C9         -0.8930    5.9370    0.9500 c3        1 MOL      0.407066
     24 C10         0.2250    5.1130    0.2910 c3        1 MOL     -0.037752
     25 C11        -0.5680    6.2900    2.3730 c3        1 MOL     -0.435320
     26 C12         1.3790    6.0560   -0.0590 c3        1 MOL     -0.286772
     27 H8         -1.8870    2.9840    0.8660 hn        1 MOL      0.231484
     28 H9         -3.0330    5.6760    1.3740 h1        1 MOL      0.125195
     29 H10        -1.0650    6.8240    0.3250 hc        1 MOL     -0.058004
     30 H11        -0.0830    4.6130   -0.6310 hc        1 MOL      0.101969
     31 H12         0.5650    4.3830    1.0290 hc        1 MOL      0.101969
     32 H13         0.0800    7.1600    2.2670 hc        1 MOL      0.092306
     33 H14        -1.4720    6.5370    2.9260 hc        1 MOL      0.092306
     34 H15        -0.0930    5.4500    2.8820 hc        1 MOL      0.092306
     35 H16         1.8770    6.5200    0.8020 hc        1 MOL      0.058607
     36 H17         2.1680    5.5660   -0.6390 hc        1 MOL      0.058607
     37 H18         0.9480    6.8240   -0.6990 hc        1 MOL      0.058607
     38 N3         -3.6570    4.0600   -0.9940 n         1 MOL     -0.424069
     39 C13        -4.4820    4.1400   -2.1890 c3        1 MOL      0.091602
     40 C14        -5.9820    3.6980   -2.1170 c         1 MOL      0.382543
     41 O6         -6.9630    4.2650   -2.7280 o         1 MOL     -0.566821
     42 C15        -3.7360    3.4950   -3.4200 c3        1 MOL     -0.322582
     43 C16        -3.1740    2.1150   -3.0750 c         1 MOL      0.868874
     44 O7         -1.9880    1.8720   -3.1380 o         1 MOL     -0.764882
     45 O8         -3.9820    1.1810   -2.8540 o         1 MOL     -0.764882
     46 H19        -3.6780    3.1680   -0.5150 hn        1 MOL      0.290378
     47 H20        -4.6310    5.1840   -2.4840 h1        1 MOL      0.071798
     48 H21        -2.8790    4.1530   -3.5950 hc        1 MOL      0.082498
     49 H22        -4.4430    3.4090   -4.2350 hc        1 MOL      0.082498
     50 N4         -6.2400    2.7380   -1.2010 n         1 MOL     -0.251701
     51 C17        -7.6080    2.4090   -0.6860 c3        1 MOL      0.006961
     52 C18        -8.0100    0.8820   -0.7380 c         1 MOL      0.478258
     53 O9         -9.0630    0.5450   -0.1350 o         1 MOL     -0.599032
     54 H23        -5.4380    2.3540   -0.7080 hn        1 MOL      0.251102
     55 H24        -8.3790    2.9500   -1.2440 h1        1 MOL      0.056741
     56 H25        -7.7560    2.6560    0.3620 h1        1 MOL      0.056741
     57 N5         -7.2930   -0.0200   -1.4440 n         1 MOL     -0.408377
     58 C19        -7.6390   -1.4880   -1.4940 c3        1 MOL      0.076943
     59 C20        -7.4240   -2.1670   -0.1230 c         1 MOL      0.513399
     60 O10        -7.9020   -3.2700   -0.0040 o         1 MOL     -0.587362
     61 C21        -6.9170   -2.2060   -2.5930 c3        1 MOL     -0.106568
     62 C22        -5.3800   -2.1580   -2.5410 c         1 MOL      0.593993
     63 O11        -4.7720   -1.8790   -1.4670 o         1 MOL     -0.659231
     64 O12        -4.7580   -2.1190   -3.6210 o         1 MOL     -0.659231
     65 H26        -6.4950    0.2530   -1.9900 hn        1 MOL      0.264320
     66 H27        -8.7060   -1.5030   -1.6960 h1        1 MOL      0.072163
     67 H28        -7.3140   -1.8520   -3.5410 hc        1 MOL      0.038106
     68 H29        -7.4350   -3.1720   -2.6470 hc        1 MOL      0.038106
     69 N6         -6.7550   -1.6140    0.8780 n         1 MOL     -0.241364
     70 C23        -6.7260   -2.3640    2.1680 c3        1 MOL     -0.263980
     71 C24        -5.6190   -3.4210    2.1220 c         1 MOL      0.653206
     72 O13        -5.7200   -4.3290    2.9030 o         1 MOL     -0.589983
     73 H30        -6.1180   -0.8720    0.6170 hn        1 MOL      0.280322
     74 H31        -7.6660   -2.9140    2.2230 h1        1 MOL      0.123481
     75 H32        -6.6530   -1.6990    3.0210 h1        1 MOL      0.123481
     76 N7         -4.5660   -3.2500    1.2550 n         1 MOL     -0.314840
     77 C25        -3.3640   -4.0940    1.3480 c3        1 MOL      0.158780
     78 C26        -2.0410   -3.4690    1.0270 c         1 MOL      0.403746
     79 O14        -1.8980   -2.5890    0.1790 o         1 MOL     -0.496324
     80 C27        -3.6100   -5.3990    0.6500 c3        1 MOL     -0.048070
     81 C28        -3.7230   -5.3160   -0.8840 c3        1 MOL     -0.241041
     82 C29        -3.5580   -6.6570   -1.5850 c         1 MOL      0.673619
     83 N8         -3.8760   -6.8780   -2.8390 n         1 MOL     -0.806886
     84 O15        -3.1990   -7.6930   -1.0600 o         1 MOL     -0.581143
     85 H33        -4.6380   -2.5020    0.5740 hn        1 MOL      0.099804
     86 H34        -3.3930   -4.3840    2.4010 h1        1 MOL     -0.004425
     87 H35        -4.4680   -5.8670    1.1290 hc        1 MOL      0.023448
     88 H36        -2.7300   -6.0270    0.8520 hc        1 MOL      0.023448
     89 H37        -2.9730   -4.6670   -1.3390 hc        1 MOL      0.125939
     90 H38        -4.6910   -4.8900   -1.1580 hc        1 MOL      0.125939
     91 H39        -4.3260   -6.1920   -3.4250 hn        1 MOL      0.349222
     92 H40        -3.7080   -7.8050   -3.2080 hn        1 MOL      0.349222
     93 N9         -0.9500   -3.7730    1.7250 n         1 MOL     -0.286337
     94 C30         0.2240   -2.9090    1.8140 c3        1 MOL     -0.091502
     95 C31         1.4260   -3.5580    1.0540 c         1 MOL      0.399954
     96 O16         2.0150   -4.5880    1.4610 o         1 MOL     -0.523343
     97 C32         0.5500   -2.6420    3.2530 c3        1 MOL      0.264656
     98 C33         1.9350   -2.0020    3.6350 c3        1 MOL     -0.243928
     99 C34        -0.5930   -1.8720    3.9600 c3        1 MOL     -0.243928
    100 H41        -1.1160   -4.5460    2.3570 hn        1 MOL      0.263865
    101 H42         0.1500   -1.9680    1.2600 h1        1 MOL      0.125701
    102 H43         0.5920   -3.6510    3.6790 hc        1 MOL     -0.045273
    103 H44         2.0410   -1.9680    4.7200 hc        1 MOL      0.048467
    104 H45         2.6840   -2.6790    3.2190 hc        1 MOL      0.048467
    105 H46         1.9600   -0.9850    3.2370 hc        1 MOL      0.048467
    106 H47        -0.4300   -1.9240    5.0360 hc        1 MOL      0.048467
    107 H48        -0.5710   -0.8170    3.6940 hc        1 MOL      0.048467
    108 H49        -1.5040   -2.3950    3.6860 hc        1 MOL      0.048467
    109 N10         1.8550   -2.8570   -0.0570 n         1 MOL     -0.276551
    110 C35         3.0650   -3.1990   -0.7600 c3        1 MOL      0.133877
    111 C36         4.3260   -2.5950   -0.0900 c         1 MOL      0.386978
    112 O17         4.1600   -1.8470    0.8570 o         1 MOL     -0.324750
    113 C37         2.8730   -2.9210   -2.2740 c3        1 MOL     -0.420031
    114 C38         3.0660   -1.3960   -2.6510 c         1 MOL      0.711632
    115 N11         2.1160   -0.5910   -2.4370 n         1 MOL     -0.832857
    116 O18         4.0930   -0.8740   -2.9760 o         1 MOL     -0.600994
    117 H50         1.4450   -1.9620   -0.2440 hn        1 MOL      0.205354
    118 H51         3.2730   -4.2640   -0.6460 h1        1 MOL      0.059202
    119 H52         1.8880   -3.2650   -2.5960 hc        1 MOL      0.125207
    120 H53         3.5880   -3.4020   -2.9310 hc        1 MOL      0.125207
    121 H54         1.2570   -0.8870   -1.9890 hn        1 MOL      0.415272
    122 H55         2.2510    0.2810   -2.9310 hn        1 MOL      0.415272
    123 N12         5.4980   -2.7140   -0.7530 n         1 MOL     -0.530473
    124 C39         6.7300   -2.1370   -0.2320 c3        1 MOL      0.336502
    125 C40         6.6810   -0.6010   -0.0260 c         1 MOL      0.379390
    126 O19         7.1980   -0.0630    0.9070 o         1 MOL     -0.515889
    127 C41         7.8900   -2.6110   -1.0920 c3        1 MOL     -0.318175
    128 C42         9.2110   -2.2370   -0.5730 ca        1 MOL      0.242861
    129 C43         9.7050   -2.5520    0.6630 ca        1 MOL     -0.201054
    130 C44        10.0900   -1.8500   -1.6430 ca        1 MOL     -0.201054
    131 C45        11.0720   -2.2790    1.0190 ca        1 MOL     -0.323725
    132 C46        11.4730   -1.5580   -1.3460 ca        1 MOL     -0.323725
    133 C47        11.8530   -1.6820   -0.0080 ca        1 MOL      0.402506
    134 O20        13.1720   -1.3210    0.2990 oh        1 MOL     -0.556464
    135 H56         5.6180   -3.2370   -1.6110 hn        1 MOL      0.307449
    136 H57         6.8240   -2.5090    0.7910 h1        1 MOL     -0.013681
    137 H58         7.6850   -2.1730   -2.0700 hc        1 MOL      0.075852
    138 H59         7.8170   -3.6900   -1.1640 hc        1 MOL      0.075852
    139 H60         9.1240   -2.9730    1.4680 ha        1 MOL      0.154365
    140 H61         9.7400   -1.5420   -2.6090 ha        1 MOL      0.154365
    141 H62        11.4310   -2.3880    2.0320 ha        1 MOL      0.177299
    142 H63        12.0630   -0.9810   -2.0380 ha        1 MOL      0.177299
    143 H64        13.6050   -0.7930   -0.3760 ho        1 MOL      0.365806
    144 N13         6.0450    0.1340   -1.0080 n         1 MOL     -0.195165
    145 C48         6.1260    1.6440   -1.1440 c3        1 MOL     -0.381251
    146 C49         5.1250    2.3410   -0.1630 c         1 MOL      0.557451
    147 O21         5.2100    3.5460    0.0520 o         1 MOL     -0.523255
    148 C50         5.6180    1.9940   -2.5950 c3        1 MOL      0.092289
    149 C51         5.8120    3.4650   -2.8890 c3        1 MOL     -0.373544
    150 C52         6.1230    3.7090   -4.3940 c         1 MOL      0.732526
    151 O22         7.1400    3.1270   -4.8690 o         1 MOL     -0.746211
    152 O23         5.3340    4.3520   -5.1360 o         1 MOL     -0.746211
    153 H65         5.5770   -0.4260   -1.7050 hn        1 MOL      0.160303
    154 H66         7.1500    2.0170   -1.1490 h1        1 MOL      0.204138
    155 H67         4.5720    1.7100   -2.6040 hc        1 MOL      0.056279
    156 H68         6.0280    1.4400   -3.4400 hc        1 MOL      0.056279
    157 H69         6.6410    3.8560   -2.2940 hc        1 MOL      0.079862
    158 H70         4.9040    4.0380   -2.7190 hc        1 MOL      0.079862
    159 N14         4.1930    1.5560    0.3480 n         1 MOL     -0.312145
    160 C53         3.3400    1.8330    1.5780 c3        1 MOL      0.027898
    161 C54         4.0350    1.4550    2.9730 c         1 MOL      0.391436
    162 O24         4.1360    2.3260    3.8180 o         1 MOL     -0.516620
    163 C55         1.9500    1.1630    1.3320 c3        1 MOL      0.079791
    164 C56         1.2720    1.4890   -0.0130 c3        1 MOL      0.031728
    165 C57        -0.0520    0.7680   -0.1980 c         1 MOL      0.776277
    166 O25        -1.0810    1.2220    0.2530 o         1 MOL     -0.802770
    167 O26        -0.0160   -0.3750   -0.7200 o         1 MOL     -0.802770
    168 H71         4.1560    0.6110   -0.0200 hn        1 MOL      0.268331
    169 H72         3.0720    2.8830    1.7190 h1        1 MOL      0.071096
    170 H73         1.1640    1.3670    2.0600 hc        1 MOL      0.015604
    171 H74         2.0910    0.0800    1.3750 hc        1 MOL      0.015604
    172 H75         2.0000    1.2960   -0.7930 hc        1 MOL     -0.054737
    173 H76         1.0900    2.5680    0.0020 hc        1 MOL     -0.054737
    174 N15         4.6630    0.2660    3.0490 n         1 MOL     -0.041079
    175 C58         5.4110   -0.0790    4.2740 c3        1 MOL     -0.210198
    176 H77         5.1950   -1.1110    4.5510 h1        1 MOL      0.074849
    177 H78         6.4800    0.0330    4.0920 h1        1 MOL      0.074849
    178 H79         5.1080    0.5840    5.0850 h1        1 MOL      0.074849
    179 H80         4.6450   -0.4630    2.3450 hn        1 MOL      0.092062
    180 Ca1        -2.5840   -0.4660   -1.1970 Ca        1 MOL      1.739651
    181 O27        -2.2500   -2.0420   -3.1410 oh        1 MOL     -1.043800
    182 H81        -3.1510   -2.0400   -3.4780 ho        1 MOL      0.458998
    183 H82        -1.7110   -2.2900   -3.8950 ho        1 MOL      0.458998
@<TRIPOS>BOND
     1    1    2 1   
     2    1    4 1   
     3    1    5 1   
     4    1    6 1   
     5    2    3 2   
     6    2    7 1   
     7    7    8 1   
     8    7   15 1   
     9    8    9 1   
    10    8   11 1   
    11    8   16 1   
    12    9   10 2   
    13    9   19 1   
    14   11   12 1   
    15   11   17 1   
    16   11   18 1   
    17   12   13 1   
    18   12   14 1   
    19   19   20 1   
    20   19   27 1   
    21   20   21 1   
    22   20   23 1   
    23   20   28 1   
    24   21   22 2   
    25   21   38 1   
    26   23   24 1   
    27   23   25 1   
    28   23   29 1   
    29   24   26 1   
    30   24   30 1   
    31   24   31 1   
    32   25   32 1   
    33   25   33 1   
    34   25   34 1   
    35   26   35 1   
    36   26   36 1   
    37   26   37 1   
    38   38   39 1   
    39   38   46 1   
    40   39   40 1   
    41   39   42 1   
    42   39   47 1   
    43   40   41 2   
    44   40   50 1   
    45   42   43 1   
    46   42   48 1   
    47   42   49 1   
    48   43   44 1   
    49   43   45 1   
    50   50   51 1   
    51   50   54 1   
    52   51   52 1   
    53   51   55 1   
    54   51   56 1   
    55   52   53 2   
    56   52   57 1   
    57   57   58 1   
    58   57   65 1   
    59   58   59 1   
    60   58   61 1   
    61   58   66 1   
    62   59   60 2   
    63   59   69 1   
    64   61   62 1   
    65   61   67 1   
    66   61   68 1   
    67   62   63 1   
    68   62   64 1   
    69   69   70 1   
    70   69   73 1   
    71   70   71 1   
    72   70   74 1   
    73   70   75 1   
    74   71   72 2   
    75   71   76 1   
    76   76   77 1   
    77   76   85 1   
    78   77   78 1   
    79   77   80 1   
    80   77   86 1   
    81   78   79 2   
    82   78   93 1   
    83   80   81 1   
    84   80   87 1   
    85   80   88 1   
    86   81   82 1   
    87   81   89 1   
    88   81   90 1   
    89   82   83 1   
    90   82   84 2   
    91   83   91 1   
    92   83   92 1   
    93   93   94 1   
    94   93  100 1   
    95   94   95 1   
    96   94   97 1   
    97   94  101 1   
    98   95   96 2   
    99   95  109 1   
   100   97   98 1   
   101   97   99 1   
   102   97  102 1   
   103   98  103 1   
   104   98  104 1   
   105   98  105 1   
   106   99  106 1   
   107   99  107 1   
   108   99  108 1   
   109  109  110 1   
   110  109  117 1   
   111  110  111 1   
   112  110  113 1   
   113  110  118 1   
   114  111  112 2   
   115  111  123 1   
   116  113  114 1   
   117  113  119 1   
   118  113  120 1   
   119  114  115 1   
   120  114  116 2   
   121  115  121 1   
   122  115  122 1   
   123  123  124 1   
   124  123  135 1   
   125  124  125 1   
   126  124  127 1   
   127  124  136 1   
   128  125  126 2   
   129  125  144 1   
   130  127  128 1   
   131  127  137 1   
   132  127  138 1   
   133  128  129 ar  
   134  128  130 ar  
   135  129  131 ar  
   136  129  139 1   
   137  130  132 ar  
   138  130  140 1   
   139  131  133 ar  
   140  131  141 1   
   141  132  133 ar  
   142  132  142 1   
   143  133  134 1   
   144  134  143 1   
   145  144  145 1   
   146  144  153 1   
   147  145  146 1   
   148  145  148 1   
   149  145  154 1   
   150  146  147 2   
   151  146  159 1   
   152  148  149 1   
   153  148  155 1   
   154  148  156 1   
   155  149  150 1   
   156  149  157 1   
   157  149  158 1   
   158  150  151 1   
   159  150  152 1   
   160  159  160 1   
   161  159  168 1   
   162  160  161 1   
   163  160  163 1   
   164  160  169 1   
   165  161  162 2   
   166  161  174 1   
   167  163  164 1   
   168  163  170 1   
   169  163  171 1   
   170  164  165 1   
   171  164  172 1   
   172  164  173 1   
   173  165  166 1   
   174  165  167 1   
   175  174  175 1   
   176  174  179 1   
   177  175  176 1   
   178  175  177 1   
   179  175  178 1   
   180  181  182 1   
   181  181  183 1   
@<TRIPOS>SUBSTRUCTURE
     1 MOL         1 TEMP              0 ****  ****    0 ROOT
