@<TRIPOS>MOLECULE
MOL
  175   173     1     0     0
SMALL
resp


@<TRIPOS>ATOM
      1 C1          0.9000    3.8980    5.2950 c3        1 MOL     -0.340634
      2 C2          0.2960    3.8840    3.9120 c         1 MOL      0.716078
      3 O1          0.9520    3.7330    2.8430 o         1 MOL     -0.549029
      4 H1          0.8770    4.9140    5.6900 hc        1 MOL      0.088443
      5 H2          0.3270    3.2420    5.9490 hc        1 MOL      0.088443
      6 H3          1.9330    3.5520    5.2450 hc        1 MOL      0.088443
      7 N1         -1.0240    4.0580    3.8630 n         1 MOL     -0.665030
      8 C3         -1.7790    3.7250    2.6700 c3        1 MOL      0.266562
      9 C4         -1.8220    4.9050    1.6670 c         1 MOL      0.522693
     10 O2         -1.9230    6.1100    2.0140 o         1 MOL     -0.566339
     11 C5         -3.1400    3.2700    3.1340 c3        1 MOL     -0.300165
     12 C6         -4.0040    2.8920    1.9120 c         1 MOL      0.589003
     13 O3         -3.6850    1.8830    1.2250 o         1 MOL     -0.576405
     14 O4         -4.9360    3.6970    1.5960 o         1 MOL     -0.576405
     15 H4         -1.5900    4.2360    4.6830 hn        1 MOL      0.337290
     16 H5         -1.3220    2.9090    2.1000 h1        1 MOL      0.046754
     17 H6         -3.6120    4.0570    3.7220 hc        1 MOL      0.060406
     18 H7         -3.0410    2.3850    3.7750 hc        1 MOL      0.060406
     19 N2         -1.9150    4.5270    0.3850 n         1 MOL     -0.479104
     20 C7         -2.1280    5.4610   -0.7740 c3        1 MOL      0.402728
     21 C8         -3.1990    5.0320   -1.8460 c         1 MOL      0.264147
     22 O5         -3.2790    5.6450   -2.9690 o         1 MOL     -0.543394
     23 C9         -0.7570    5.6950   -1.4750 c3        1 MOL     -0.418303
     24 H8         -1.8640    3.5380    0.1780 hn        1 MOL      0.290703
     25 H9         -2.5050    6.4100   -0.3620 h1        1 MOL      0.004960
     26 H10        -0.4790    4.7590   -1.9660 hc        1 MOL      0.104411
     27 H11        -0.9290    6.4280   -2.2530 hc        1 MOL      0.104411
     28 H12         0.0380    6.1020   -0.8480 hc        1 MOL      0.104411
     29 N3         -3.9950    4.0240   -1.5440 n         1 MOL      0.027408
     30 C10        -5.0260    3.5050   -2.4340 c3        1 MOL     -0.051580
     31 C11        -6.2810    2.7950   -1.8030 c         1 MOL      0.421060
     32 O6         -7.3470    2.7080   -2.4030 o         1 MOL     -0.567893
     33 C12        -4.3210    2.5650   -3.4940 c3        1 MOL      0.066184
     34 C13        -3.3650    1.6290   -2.9390 c         1 MOL      0.590641
     35 O7         -2.3230    1.3490   -3.5920 o         1 MOL     -0.662766
     36 O8         -3.6010    1.1330   -1.8380 o         1 MOL     -0.662766
     37 H13        -3.9470    3.6240   -0.6130 hn        1 MOL     -0.026233
     38 H14        -5.5070    4.3670   -2.8990 h1        1 MOL      0.052674
     39 H15        -3.7950    3.1680   -4.2370 hc        1 MOL     -0.010622
     40 H16        -5.0840    2.0740   -4.0960 hc        1 MOL     -0.010622
     41 N4         -6.1250    2.1690   -0.6540 n         1 MOL     -0.005432
     42 C14        -7.1860    1.3910    0.0410 c3        1 MOL     -0.306224
     43 C15        -7.3190   -0.0340   -0.4910 c         1 MOL      0.567230
     44 O9         -8.2830   -0.7190   -0.0980 o         1 MOL     -0.638541
     45 H17        -5.3680    2.4090   -0.0360 hn        1 MOL      0.056338
     46 H18        -8.2020    1.7840   -0.0070 h1        1 MOL      0.123424
     47 H19        -6.8620    1.3590    1.0880 h1        1 MOL      0.123424
     48 N5         -6.3750   -0.4640   -1.2640 n         1 MOL     -0.237157
     49 C16        -6.4420   -1.8140   -1.9450 c3        1 MOL      0.006801
     50 C17        -6.5090   -3.1120   -1.1050 c         1 MOL      0.452821
     51 O10        -6.5030   -4.1950   -1.6320 o         1 MOL     -0.523843
     52 C18        -5.2700   -1.8600   -2.9140 c3        1 MOL     -0.170407
     53 C19        -3.8830   -2.0210   -2.2980 c         1 MOL      0.606857
     54 N6         -2.9270   -2.2190   -3.1660 n         1 MOL     -0.554190
     55 O11        -3.6580   -2.0100   -1.0640 o         1 MOL     -0.668671
     56 H20        -5.5940    0.1510   -1.4660 hn        1 MOL      0.164730
     57 H21        -7.4260   -1.8970   -2.4060 h1        1 MOL      0.082745
     58 H22        -5.1880   -0.9200   -3.4550 hc        1 MOL      0.054176
     59 H23        -5.4400   -2.7130   -3.5800 hc        1 MOL      0.054176
     60 H24        -3.1460   -2.1190   -4.1380 hn        1 MOL      0.324390
     61 H25        -1.9700   -2.2880   -2.8630 hn        1 MOL      0.324390
     62 N7         -6.4610   -2.9860    0.2070 n         1 MOL     -0.134648
     63 C20        -6.4580   -3.9850    1.2820 c3        1 MOL     -0.417868
     64 C21        -5.0720   -4.6520    1.5300 c         1 MOL      0.630810
     65 O12        -4.9940   -5.5380    2.3920 o         1 MOL     -0.594193
     66 H26        -6.4070   -2.0260    0.5030 hn        1 MOL      0.229542
     67 H27        -7.1080   -4.8220    0.9960 h1        1 MOL      0.159497
     68 H28        -6.7180   -3.5670    2.2470 h1        1 MOL      0.159497
     69 N8         -3.9830   -4.0970    0.9500 n         1 MOL     -0.401228
     70 C22        -2.6100   -4.6240    1.1190 c3        1 MOL      0.006467
     71 C23        -1.5780   -3.5430    1.3730 c         1 MOL      0.394799
     72 O13        -1.7630   -2.4460    0.8580 o         1 MOL     -0.518745
     73 C24        -2.2300   -5.5390   -0.1060 c3        1 MOL      0.548968
     74 C25        -3.0040   -6.8320   -0.1200 c3        1 MOL     -0.373464
     75 O14        -2.5310   -4.8820   -1.3860 oh        1 MOL     -0.619443
     76 H29        -4.0850   -3.2550    0.4020 hn        1 MOL      0.315345
     77 H30        -2.5650   -5.2830    1.9830 h1        1 MOL      0.037065
     78 H31        -1.1750   -5.7640    0.0800 h1        1 MOL     -0.083270
     79 H32        -2.4380   -3.9280   -1.2470 ho        1 MOL      0.338342
     80 H33        -4.0780   -6.6850   -0.2480 hc        1 MOL      0.086189
     81 H34        -2.6560   -7.4940   -0.9120 hc        1 MOL      0.086189
     82 H35        -2.9080   -7.3280    0.8470 hc        1 MOL      0.086189
     83 N9         -0.4130   -3.9130    1.9460 n         1 MOL     -0.314243
     84 C26         0.7180   -3.0130    1.9090 c3        1 MOL      0.025476
     85 C27         1.5030   -3.2450    0.6130 c         1 MOL      0.557896
     86 O15         1.8350   -4.4020    0.3320 o         1 MOL     -0.585741
     87 C28         1.4980   -3.0550    3.2580 c3        1 MOL      0.075843
     88 C29         0.7620   -2.5330    4.5060 c3        1 MOL      0.173565
     89 C30         2.8190   -2.3010    3.1870 c3        1 MOL     -0.311639
     90 C31         1.2890   -3.1560    5.8090 c3        1 MOL     -0.173173
     91 H36        -0.2500   -4.8160    2.3770 hn        1 MOL      0.245216
     92 H37         0.2910   -2.0090    1.8070 h1        1 MOL     -0.010887
     93 H38         1.7190   -4.1170    3.3710 hc        1 MOL      0.002949
     94 H39        -0.2830   -2.8350    4.4430 hc        1 MOL     -0.041883
     95 H40         0.8480   -1.4440    4.4490 hc        1 MOL     -0.041883
     96 H41         3.5570   -2.6360    2.4690 hc        1 MOL      0.064140
     97 H42         2.5800   -1.2450    3.0490 hc        1 MOL      0.064140
     98 H43         3.4110   -2.3210    4.1090 hc        1 MOL      0.064140
     99 H44         0.6770   -2.7530    6.6140 hc        1 MOL      0.031200
    100 H45         1.1850   -4.2450    5.7490 hc        1 MOL      0.031200
    101 H46         2.3170   -2.8290    5.9690 hc        1 MOL      0.031200
    102 N10         1.8090   -2.1190   -0.0760 n         1 MOL     -0.411086
    103 C32         2.5890   -2.1560   -1.2510 c3        1 MOL      0.000181
    104 C33         4.0320   -1.5600   -1.0060 c         1 MOL      0.520666
    105 O16         4.2650   -0.8960   -0.0140 o         1 MOL     -0.413732
    106 C34         1.7840   -1.4170   -2.3410 c3        1 MOL     -0.162905
    107 C35         0.3410   -1.7270   -2.4910 c         1 MOL      0.688310
    108 O17        -0.4690   -1.2520   -1.6340 o         1 MOL     -0.687048
    109 O18        -0.0450   -2.2950   -3.5990 o         1 MOL     -0.687048
    110 H47         1.4800   -1.2400    0.2930 hn        1 MOL      0.494715
    111 H48         2.6720   -3.2100   -1.5060 h1        1 MOL      0.078080
    112 H49         2.3640   -1.6140   -3.2450 hc        1 MOL      0.037425
    113 H50         1.7760   -0.3320   -2.1940 hc        1 MOL      0.037425
    114 N11         5.0520   -1.7480   -1.8860 n         1 MOL     -0.754457
    115 C36         6.4210   -1.3800   -1.5330 c3        1 MOL      0.457579
    116 C37         6.7490    0.0910   -1.3290 c         1 MOL      0.143054
    117 O19         7.4290    0.4110   -0.3180 o         1 MOL     -0.441512
    118 C38         7.4800   -2.1800   -2.3960 c3        1 MOL     -0.312662
    119 C39         8.8820   -2.0500   -1.7900 ca        1 MOL      0.036590
    120 C40         9.1380   -2.6900   -0.5610 ca        1 MOL     -0.088027
    121 C41         9.8270   -1.2090   -2.4000 ca        1 MOL     -0.088027
    122 C42        10.4000   -2.5930   -0.0140 ca        1 MOL     -0.140109
    123 C43        11.1140   -1.1880   -1.8740 ca        1 MOL     -0.140109
    124 C44        11.4060   -1.8790   -0.6920 ca        1 MOL     -0.120493
    125 H51         4.8390   -2.2890   -2.7070 hn        1 MOL      0.350631
    126 H52         6.5050   -1.7580   -0.5150 h1        1 MOL      0.065964
    127 H53         7.4030   -1.9790   -3.4630 hc        1 MOL      0.095979
    128 H54         7.1320   -3.2110   -2.3440 hc        1 MOL      0.095979
    129 H55         8.4110   -3.2560    0.0010 ha        1 MOL      0.100866
    130 H56         9.6060   -0.6850   -3.3220 ha        1 MOL      0.100866
    131 H57        10.6530   -2.9720    0.9660 ha        1 MOL      0.115098
    132 H58        11.8260   -0.4730   -2.2870 ha        1 MOL      0.115098
    133 H59        12.3410   -1.8030   -0.1590 ha        1 MOL      0.105725
    134 N12         6.2370    1.0010   -2.1570 n         1 MOL      0.035346
    135 C45         6.4040    2.4870   -1.8710 c3        1 MOL      0.016857
    136 C46         5.9400    2.7840   -0.4140 c         1 MOL      0.313276
    137 O20         6.6410    3.5250    0.2690 o         1 MOL     -0.485942
    138 C47         5.6950    3.2070   -2.9770 c3        1 MOL      0.060735
    139 C48         5.6150    2.1530   -4.0710 c3        1 MOL     -0.066354
    140 C49         5.5310    0.8300   -3.3760 c3        1 MOL     -0.061580
    141 H60         7.4790    2.5920   -1.9460 h1        1 MOL      0.050179
    142 H61         4.6860    3.4360   -2.6450 hc        1 MOL      0.006519
    143 H62         6.2070    4.0990   -3.3570 hc        1 MOL      0.006519
    144 H63         4.7720    2.2350   -4.7630 hc        1 MOL      0.027876
    145 H64         6.5460    2.0580   -4.6320 hc        1 MOL      0.027876
    146 H65         4.4670    0.6210   -3.3040 h1        1 MOL      0.050320
    147 H66         6.0500    0.0850   -3.9720 h1        1 MOL      0.050320
    148 N13         4.8090    2.1420    0.0280 n         1 MOL     -0.103925
    149 C50         4.1960    2.3450    1.4050 c3        1 MOL     -0.287603
    150 C51         5.1420    1.7670    2.5320 c         1 MOL      0.456444
    151 O21         5.2870    2.3990    3.6140 o         1 MOL     -0.572253
    152 C52         2.7850    1.6450    1.4040 c3        1 MOL      0.128743
    153 C53         1.8180    2.1890    0.3760 c3        1 MOL     -0.359692
    154 C54         0.5130    1.4450    0.4150 c         1 MOL      0.736644
    155 O22        -0.4860    1.8860   -0.1920 o         1 MOL     -0.718350
    156 O23         0.3640    0.3630    1.0250 o         1 MOL     -0.718350
    157 H67         4.4510    1.4700   -0.6440 hn        1 MOL      0.170597
    158 H68         4.0630    3.3990    1.6410 h1        1 MOL      0.175525
    159 H69         2.4260    1.9420    2.3870 hc        1 MOL      0.000343
    160 H70         2.7740    0.5630    1.3560 hc        1 MOL      0.000343
    161 H71         2.2430    1.8580   -0.5740 hc        1 MOL      0.115902
    162 H72         1.7900    3.2830    0.4010 hc        1 MOL      0.115902
    163 N14         5.7050    0.6230    2.3590 n         1 MOL     -0.004632
    164 C55         6.4970    0.0220    3.3870 c3        1 MOL     -0.220272
    165 H73         6.5220    0.6790    4.2560 h1        1 MOL      0.082006
    166 H74         6.0610   -0.9360    3.6690 h1        1 MOL      0.082006
    167 H75         7.5120   -0.1340    3.0200 h1        1 MOL      0.082006
    168 H76         5.5470    0.1040    1.5090 hn        1 MOL      0.105704
    169 Ca1        -2.2850    0.0030    0.1330 Ca        1 MOL      1.667163
    170 O24        -4.5730   -0.6440    1.4850 oh        1 MOL     -0.848509
    171 H77        -5.2960   -0.8510    2.0830 ho        1 MOL      0.396561
    172 H78        -4.3440    0.2650    1.6710 ho        1 MOL      0.396561
    173 O25        -1.6470    0.0650    2.6940 oh        1 MOL     -0.848509
    174 H79        -0.7560    0.1090    2.3380 ho        1 MOL      0.396561
    175 H80        -1.5350    0.1250    3.6440 ho        1 MOL      0.396561
@<TRIPOS>BOND
     1    1    2 1   
     2    1    4 1   
     3    1    5 1   
     4    1    6 1   
     5    2    3 2   
     6    2    7 1   
     7    7    8 1   
     8    7   15 1   
     9    8    9 1   
    10    8   11 1   
    11    8   16 1   
    12    9   10 2   
    13    9   19 1   
    14   11   12 1   
    15   11   17 1   
    16   11   18 1   
    17   12   13 1   
    18   12   14 1   
    19   19   20 1   
    20   19   24 1   
    21   20   21 1   
    22   20   23 1   
    23   20   25 1   
    24   21   22 2   
    25   21   29 1   
    26   23   26 1   
    27   23   27 1   
    28   23   28 1   
    29   29   30 1   
    30   29   37 1   
    31   30   31 1   
    32   30   33 1   
    33   30   38 1   
    34   31   32 2   
    35   31   41 1   
    36   33   34 1   
    37   33   39 1   
    38   33   40 1   
    39   34   35 1   
    40   34   36 1   
    41   41   42 1   
    42   41   45 1   
    43   42   43 1   
    44   42   46 1   
    45   42   47 1   
    46   43   44 2   
    47   43   48 1   
    48   48   49 1   
    49   48   56 1   
    50   49   50 1   
    51   49   52 1   
    52   49   57 1   
    53   50   51 2   
    54   50   62 1   
    55   52   53 1   
    56   52   58 1   
    57   52   59 1   
    58   53   54 1   
    59   53   55 2   
    60   54   60 1   
    61   54   61 1   
    62   62   63 1   
    63   62   66 1   
    64   63   64 1   
    65   63   67 1   
    66   63   68 1   
    67   64   65 2   
    68   64   69 1   
    69   69   70 1   
    70   69   76 1   
    71   70   71 1   
    72   70   73 1   
    73   70   77 1   
    74   71   72 2   
    75   71   83 1   
    76   73   74 1   
    77   73   75 1   
    78   73   78 1   
    79   74   80 1   
    80   74   81 1   
    81   74   82 1   
    82   75   79 1   
    83   83   84 1   
    84   83   91 1   
    85   84   85 1   
    86   84   87 1   
    87   84   92 1   
    88   85   86 2   
    89   85  102 1   
    90   87   88 1   
    91   87   89 1   
    92   87   93 1   
    93   88   90 1   
    94   88   94 1   
    95   88   95 1   
    96   89   96 1   
    97   89   97 1   
    98   89   98 1   
    99   90   99 1   
   100   90  100 1   
   101   90  101 1   
   102  102  103 1   
   103  102  110 1   
   104  103  104 1   
   105  103  106 1   
   106  103  111 1   
   107  104  105 2   
   108  104  114 1   
   109  106  107 1   
   110  106  112 1   
   111  106  113 1   
   112  107  108 1   
   113  107  109 1   
   114  114  115 1   
   115  114  125 1   
   116  115  116 1   
   117  115  118 1   
   118  115  126 1   
   119  116  117 2   
   120  116  134 1   
   121  118  119 1   
   122  118  127 1   
   123  118  128 1   
   124  119  120 ar  
   125  119  121 ar  
   126  120  122 ar  
   127  120  129 1   
   128  121  123 ar  
   129  121  130 1   
   130  122  124 ar  
   131  122  131 1   
   132  123  124 ar  
   133  123  132 1   
   134  124  133 1   
   135  134  135 1   
   136  134  140 1   
   137  135  136 1   
   138  135  138 1   
   139  135  141 1   
   140  136  137 2   
   141  136  148 1   
   142  138  139 1   
   143  138  142 1   
   144  138  143 1   
   145  139  140 1   
   146  139  144 1   
   147  139  145 1   
   148  140  146 1   
   149  140  147 1   
   150  148  149 1   
   151  148  157 1   
   152  149  150 1   
   153  149  152 1   
   154  149  158 1   
   155  150  151 2   
   156  150  163 1   
   157  152  153 1   
   158  152  159 1   
   159  152  160 1   
   160  153  154 1   
   161  153  161 1   
   162  153  162 1   
   163  154  155 1   
   164  154  156 1   
   165  163  164 1   
   166  163  168 1   
   167  164  165 1   
   168  164  166 1   
   169  164  167 1   
   170  170  171 1   
   171  170  172 1   
   172  173  174 1   
   173  173  175 1   
@<TRIPOS>SUBSTRUCTURE
     1 MOL         1 TEMP              0 ****  ****    0 ROOT
