@<TRIPOS>MOLECULE
MOL
  176   174     1     0     0
SMALL
resp


@<TRIPOS>ATOM
      1 C1          1.0380    3.2550    6.1660 c3        1 MOL     -0.237242
      2 C2          0.7440    2.7740    4.6930 c         1 MOL      0.703395
      3 O1          1.6630    2.8450    3.8550 o         1 MOL     -0.581876
      4 H1          0.7450    2.4750    6.8680 hc        1 MOL      0.063640
      5 H2          2.1030    3.4600    6.2760 hc        1 MOL      0.063640
      6 H3          0.4690    4.1620    6.3730 hc        1 MOL      0.063640
      7 N1         -0.4910    2.5010    4.3000 n         1 MOL     -0.613932
      8 C3         -0.8740    2.2930    2.9680 c3        1 MOL      0.128447
      9 C4         -0.8570    3.5820    2.1550 c         1 MOL      0.651711
     10 O2         -1.3640    4.6220    2.6480 o         1 MOL     -0.599860
     11 C5         -2.1920    1.5620    3.0280 c3        1 MOL     -0.428589
     12 C6         -2.7370    1.1290    1.6640 c         1 MOL      1.000524
     13 O3         -2.6400    1.8470    0.6650 o         1 MOL     -0.823626
     14 O4         -3.1460   -0.0050    1.4470 o         1 MOL     -0.823626
     15 H4         -1.2470    2.5450    4.9640 hn        1 MOL      0.331668
     16 H5         -0.0930    1.6580    2.5210 h1        1 MOL      0.043408
     17 H6         -2.9980    2.1800    3.4230 hc        1 MOL      0.109703
     18 H7         -2.0650    0.6970    3.6830 hc        1 MOL      0.109703
     19 N2         -0.3820    3.5850    0.9340 n         1 MOL     -0.204831
     20 C7         -0.2180    4.8590    0.1770 c3        1 MOL     -0.424334
     21 C8         -1.4440    5.2740   -0.5500 c         1 MOL      0.754974
     22 O5         -1.5820    6.4190   -1.0050 o         1 MOL     -0.630953
     23 C9          1.0050    4.6430   -0.6680 c3        1 MOL      0.072082
     24 C10         1.4180    5.7300   -1.5740 c3        1 MOL      0.205283
     25 C11         2.6700    5.6050   -2.3080 c3        1 MOL     -0.075497
     26 C12         3.2900    6.9020   -2.7720 c3        1 MOL     -0.045204
     27 N3          2.4570    7.3960   -3.8380 n4        1 MOL     -0.225015
     28 H8          0.0120    2.7320    0.5610 hn        1 MOL      0.095063
     29 H9         -0.0240    5.7100    0.8280 h1        1 MOL      0.169655
     30 H10         0.8030    3.7120   -1.2090 hc        1 MOL      0.063682
     31 H11         1.9050    4.4340   -0.0870 hc        1 MOL      0.063682
     32 H12         1.3500    6.6660   -1.0130 hc        1 MOL     -0.053446
     33 H13         0.6840    5.7770   -2.3770 hc        1 MOL     -0.053446
     34 H14         2.4640    4.9470   -3.1490 hc        1 MOL      0.037194
     35 H15         3.2910    5.0840   -1.5700 hc        1 MOL      0.037194
     36 H16         4.2830    6.7600   -3.2130 hx        1 MOL      0.106167
     37 H17         3.4320    7.6440   -1.9810 hx        1 MOL      0.106167
     38 H18         2.4460    6.8180   -4.6620 hn        1 MOL      0.295123
     39 H19         1.5360    7.6530   -3.5230 hn        1 MOL      0.295123
     40 H20         2.7890    8.2880   -4.1910 hn        1 MOL      0.295123
     41 N4         -2.3720    4.3100   -0.6600 n         1 MOL     -0.506601
     42 C13        -3.6600    4.5010   -1.4340 c3        1 MOL      0.054775
     43 C14        -4.9980    3.9350   -0.7200 c         1 MOL      0.436583
     44 O6         -6.1090    4.2060   -1.0630 o         1 MOL     -0.535715
     45 C15        -3.4890    3.8020   -2.7970 c3        1 MOL     -0.297170
     46 C16        -3.0540    2.3700   -2.6380 c         1 MOL      0.874701
     47 O7         -1.9860    1.9450   -3.0470 o         1 MOL     -0.784139
     48 O8         -3.7850    1.5310   -2.0640 o         1 MOL     -0.784139
     49 H21        -2.1410    3.4090   -0.2720 hn        1 MOL      0.321911
     50 H22        -3.8320    5.5550   -1.6470 h1        1 MOL      0.117124
     51 H23        -2.7320    4.3710   -3.3380 hc        1 MOL      0.072007
     52 H24        -4.4430    3.8760   -3.3070 hc        1 MOL      0.072007
     53 N5         -4.8500    3.2490    0.3810 n         1 MOL     -0.197499
     54 C17        -5.9140    2.8550    1.2960 c3        1 MOL     -0.117968
     55 C18        -6.7160    1.6020    0.8410 c         1 MOL      0.480085
     56 O9         -7.7060    1.2390    1.4910 o         1 MOL     -0.582465
     57 H25        -3.9520    2.8550    0.6170 hn        1 MOL      0.137731
     58 H26        -6.6120    3.6720    1.4990 h1        1 MOL      0.092984
     59 H27        -5.5070    2.5730    2.2620 h1        1 MOL      0.092984
     60 N6         -6.2740    0.8890   -0.1870 n         1 MOL     -0.184471
     61 C19        -6.9060   -0.3240   -0.7600 c3        1 MOL     -0.013726
     62 C20        -7.0320   -1.5620    0.1880 c         1 MOL      0.467923
     63 O10        -7.9130   -2.3650   -0.0380 o         1 MOL     -0.547182
     64 C21        -6.2290   -0.7610   -2.0410 c3        1 MOL     -0.355152
     65 C22        -5.0160   -1.6500   -1.8000 c         1 MOL      0.836854
     66 N7         -5.0480   -2.7740   -2.3870 n         1 MOL     -0.837837
     67 O11        -4.1570   -1.4110   -1.0380 o         1 MOL     -0.704833
     68 H28        -5.4070    1.2470   -0.5790 hn        1 MOL      0.199220
     69 H29        -7.9330    0.0190   -0.9120 h1        1 MOL      0.107997
     70 H30        -6.0090    0.1510   -2.5940 hc        1 MOL      0.120305
     71 H31        -6.9670   -1.2890   -2.6340 hc        1 MOL      0.120305
     72 H32        -5.8920   -3.1630   -2.7950 hn        1 MOL      0.356613
     73 H33        -4.2270   -3.3500   -2.2590 hn        1 MOL      0.356613
     74 N8         -6.2290   -1.6440    1.2370 n         1 MOL     -0.139398
     75 C23        -6.1620   -2.7620    2.1370 c3        1 MOL     -0.235362
     76 C24        -4.7820   -3.3980    2.4060 c         1 MOL      0.556568
     77 O12        -4.5360   -4.1940    3.2990 o         1 MOL     -0.573357
     78 H34        -5.5440   -0.9010    1.3430 hn        1 MOL      0.218772
     79 H35        -6.6380   -3.6060    1.6490 h1        1 MOL      0.121439
     80 H36        -6.5980   -2.4930    3.1000 h1        1 MOL      0.121439
     81 N9         -3.8240   -3.1490    1.5180 n         1 MOL     -0.306099
     82 C25        -2.5300   -3.8200    1.5090 c3        1 MOL      0.107425
     83 C26        -1.3100   -3.0000    0.9560 c         1 MOL      0.571274
     84 O13        -1.4410   -2.1570    0.1140 o         1 MOL     -0.626596
     85 C27        -2.6250   -5.1590    0.8600 c3        1 MOL     -0.173294
     86 C28        -2.6540   -5.1910   -0.6540 ca        1 MOL      0.113120
     87 C29        -1.4620   -4.9640   -1.3890 ca        1 MOL     -0.181709
     88 C30        -3.8220   -5.5890   -1.3530 ca        1 MOL     -0.181709
     89 C31        -1.4680   -4.8680   -2.7840 ca        1 MOL     -0.201352
     90 C32        -3.8070   -5.5930   -2.7570 ca        1 MOL     -0.201352
     91 C33        -2.6860   -5.1350   -3.4670 ca        1 MOL      0.303123
     92 O14        -2.8030   -5.3440   -4.8410 oh        1 MOL     -0.543529
     93 H37        -3.9400   -2.3600    0.9050 hn        1 MOL      0.219809
     94 H38        -2.2690   -4.0390    2.5490 h1        1 MOL      0.055619
     95 H39        -3.4670   -5.6820    1.3060 hc        1 MOL      0.064787
     96 H40        -1.7030   -5.7180    1.0700 hc        1 MOL      0.064787
     97 H41        -0.5470   -4.8510   -0.8100 ha        1 MOL      0.141747
     98 H42        -4.7440   -5.8580   -0.8540 ha        1 MOL      0.141747
     99 H43        -0.5480   -4.7770   -3.3400 ha        1 MOL      0.133620
    100 H44        -4.7220   -5.8860   -3.2520 ha        1 MOL      0.133620
    101 H45        -3.7000   -5.4380   -5.1550 ho        1 MOL      0.385285
    102 N10        -0.1320   -3.4130    1.3740 n         1 MOL     -0.375886
    103 C34         1.1590   -2.7260    1.3330 c3        1 MOL     -0.000903
    104 C35         2.1500   -3.7110    0.8630 c         1 MOL      0.545751
    105 O15         2.0670   -4.9070    1.0520 o         1 MOL     -0.544392
    106 C36         1.5240   -2.0000    2.6070 c3        1 MOL      0.143968
    107 C37         1.8500   -2.8520    3.8800 c3        1 MOL      0.028016
    108 C38         0.2900   -1.1070    2.9790 c3        1 MOL     -0.125162
    109 C39         3.2590   -3.2760    3.8770 c3        1 MOL     -0.291892
    110 H46        -0.1310   -4.2350    1.9520 hn        1 MOL      0.257469
    111 H47         1.0790   -1.9870    0.5430 h1        1 MOL      0.071902
    112 H48         2.3960   -1.3910    2.3890 hc        1 MOL     -0.027635
    113 H49         1.0950   -3.6240    4.0240 hc        1 MOL      0.011351
    114 H50         1.7730   -2.1720    4.7370 hc        1 MOL      0.011351
    115 H51        -0.0690   -0.5950    2.0860 hc        1 MOL      0.028856
    116 H52        -0.5420   -1.6490    3.4190 hc        1 MOL      0.028856
    117 H53         0.7060   -0.4150    3.7120 hc        1 MOL      0.028856
    118 H54         3.5440   -3.5580    4.8900 hc        1 MOL      0.078123
    119 H55         3.4050   -4.0410    3.1140 hc        1 MOL      0.078123
    120 H56         3.9390   -2.4390    3.7080 hc        1 MOL      0.078123
    121 N11         3.1650   -3.1650    0.1880 n         1 MOL     -0.393376
    122 C40         4.4250   -3.8490   -0.3030 c3        1 MOL      0.066319
    123 C41         5.6570   -3.1280    0.2460 c         1 MOL      0.424016
    124 O16         5.5800   -2.1210    0.8820 o         1 MOL     -0.455078
    125 C42         4.4030   -3.6770   -1.8670 c3        1 MOL     -0.197400
    126 O17         4.6390   -2.3780   -2.3370 oh        1 MOL     -0.468036
    127 H57         3.0870   -2.1840   -0.0620 hn        1 MOL      0.262734
    128 H58         4.4010   -4.8930   -0.0200 h1        1 MOL      0.107656
    129 H59         3.4930   -4.0400   -2.3430 h1        1 MOL      0.109081
    130 H60         5.2090   -4.2770   -2.3050 h1        1 MOL      0.109081
    131 H61         4.3690   -2.3530   -3.2600 ho        1 MOL      0.408615
    132 N12         6.8080   -3.6430   -0.0950 n         1 MOL     -0.385223
    133 C43         8.1230   -2.9460   -0.1140 c3        1 MOL      0.198707
    134 C44         8.0490   -1.4370   -0.5400 c         1 MOL      0.489092
    135 O18         8.6540   -0.6620    0.1640 o         1 MOL     -0.514426
    136 C45         9.0280   -3.8840   -0.9000 c3        1 MOL     -0.242636
    137 H62         6.7990   -4.5830   -0.4490 hn        1 MOL      0.255688
    138 H63         8.4780   -3.0020    0.9190 h1        1 MOL      0.042672
    139 H64        10.0750   -3.5780   -0.8240 hc        1 MOL      0.065531
    140 H65         8.8030   -4.8970   -0.5550 hc        1 MOL      0.065531
    141 H66         8.7240   -3.8280   -1.9410 hc        1 MOL      0.065531
    142 N13         7.3840   -1.1360   -1.6380 n         1 MOL     -0.326258
    143 C46         7.4000    0.1970   -2.2500 c3        1 MOL      0.008489
    144 C47         6.8360    1.2710   -1.2610 c         1 MOL      0.405031
    145 O19         7.2720    2.4290   -1.2640 o         1 MOL     -0.515505
    146 C48         6.6330    0.1400   -3.6220 c3        1 MOL     -0.296371
    147 H67         6.8420   -1.8570   -2.0780 hn        1 MOL      0.220024
    148 H68         8.4240    0.5170   -2.4510 h1        1 MOL      0.100786
    149 H69         7.1410   -0.6070   -4.2280 hc        1 MOL      0.089971
    150 H70         5.5910   -0.1320   -3.4370 hc        1 MOL      0.089971
    151 H71         6.6270    1.0420   -4.2480 hc        1 MOL      0.089971
    152 N14         5.6490    0.9380   -0.7240 n         1 MOL     -0.120514
    153 C49         4.8790    1.8720    0.0930 c3        1 MOL     -0.271810
    154 C50         5.5790    1.8770    1.4800 c         1 MOL      0.647231
    155 O20         5.6840    2.9790    2.0490 o         1 MOL     -0.569013
    156 C51         3.3910    1.5640    0.1850 c3        1 MOL      0.114485
    157 C52         2.5770    1.4150   -1.1260 c3        1 MOL      0.218023
    158 C53         1.2000    0.7840   -1.0310 c         1 MOL      0.672854
    159 O21         0.2580    1.2510   -0.3400 o         1 MOL     -0.736597
    160 O22         0.9710   -0.2590   -1.6620 o         1 MOL     -0.736597
    161 H72         5.3770   -0.0090   -0.9400 hn        1 MOL      0.246954
    162 H73         5.0750    2.8850   -0.2750 h1        1 MOL      0.099744
    163 H74         2.8480    2.2190    0.8710 hc        1 MOL     -0.015607
    164 H75         3.5010    0.5960    0.6740 hc        1 MOL     -0.015607
    165 H76         3.1320    0.7480   -1.7870 hc        1 MOL     -0.118227
    166 H77         2.5470    2.4010   -1.5830 hc        1 MOL     -0.118227
    167 N15         5.9180    0.7370    2.0070 n         1 MOL     -0.285357
    168 C54         6.8780    0.6420    3.1660 c3        1 MOL     -0.285273
    169 H78         7.8350    1.0780    2.8810 h1        1 MOL      0.128450
    170 H79         6.4710    1.1840    4.0200 h1        1 MOL      0.128450
    171 H80         7.0210   -0.4050    3.4340 h1        1 MOL      0.128450
    172 H81         5.8590   -0.0640    1.3970 hn        1 MOL      0.199527
    173 Ca1        -1.9290    0.1170   -1.0560 Ca        1 MOL      1.777944
    174 O23        -1.6830   -1.4150   -3.1690 oh        1 MOL     -0.796394
    175 H82        -2.0910   -1.9540   -3.8600 ho        1 MOL      0.398641
    176 H83        -0.8840   -1.8900   -2.9510 ho        1 MOL      0.398641
@<TRIPOS>BOND
     1    1    2 1   
     2    1    4 1   
     3    1    5 1   
     4    1    6 1   
     5    2    3 2   
     6    2    7 1   
     7    7    8 1   
     8    7   15 1   
     9    8    9 1   
    10    8   11 1   
    11    8   16 1   
    12    9   10 2   
    13    9   19 1   
    14   11   12 1   
    15   11   17 1   
    16   11   18 1   
    17   12   13 1   
    18   12   14 1   
    19   19   20 1   
    20   19   28 1   
    21   20   21 1   
    22   20   23 1   
    23   20   29 1   
    24   21   22 2   
    25   21   41 1   
    26   23   24 1   
    27   23   30 1   
    28   23   31 1   
    29   24   25 1   
    30   24   32 1   
    31   24   33 1   
    32   25   26 1   
    33   25   34 1   
    34   25   35 1   
    35   26   27 1   
    36   26   36 1   
    37   26   37 1   
    38   27   38 1   
    39   27   39 1   
    40   27   40 1   
    41   41   42 1   
    42   41   49 1   
    43   42   43 1   
    44   42   45 1   
    45   42   50 1   
    46   43   44 2   
    47   43   53 1   
    48   45   46 1   
    49   45   51 1   
    50   45   52 1   
    51   46   47 1   
    52   46   48 1   
    53   53   54 1   
    54   53   57 1   
    55   54   55 1   
    56   54   58 1   
    57   54   59 1   
    58   55   56 2   
    59   55   60 1   
    60   60   61 1   
    61   60   68 1   
    62   61   62 1   
    63   61   64 1   
    64   61   69 1   
    65   62   63 2   
    66   62   74 1   
    67   64   65 1   
    68   64   70 1   
    69   64   71 1   
    70   65   66 1   
    71   65   67 2   
    72   66   72 1   
    73   66   73 1   
    74   74   75 1   
    75   74   78 1   
    76   75   76 1   
    77   75   79 1   
    78   75   80 1   
    79   76   77 2   
    80   76   81 1   
    81   81   82 1   
    82   81   93 1   
    83   82   83 1   
    84   82   85 1   
    85   82   94 1   
    86   83   84 2   
    87   83  102 1   
    88   85   86 1   
    89   85   95 1   
    90   85   96 1   
    91   86   87 ar  
    92   86   88 ar  
    93   87   89 ar  
    94   87   97 1   
    95   88   90 ar  
    96   88   98 1   
    97   89   91 ar  
    98   89   99 1   
    99   90   91 ar  
   100   90  100 1   
   101   91   92 1   
   102   92  101 1   
   103  102  103 1   
   104  102  110 1   
   105  103  104 1   
   106  103  106 1   
   107  103  111 1   
   108  104  105 2   
   109  104  121 1   
   110  106  107 1   
   111  106  108 1   
   112  106  112 1   
   113  107  109 1   
   114  107  113 1   
   115  107  114 1   
   116  108  115 1   
   117  108  116 1   
   118  108  117 1   
   119  109  118 1   
   120  109  119 1   
   121  109  120 1   
   122  121  122 1   
   123  121  127 1   
   124  122  123 1   
   125  122  125 1   
   126  122  128 1   
   127  123  124 2   
   128  123  132 1   
   129  125  126 1   
   130  125  129 1   
   131  125  130 1   
   132  126  131 1   
   133  132  133 1   
   134  132  137 1   
   135  133  134 1   
   136  133  136 1   
   137  133  138 1   
   138  134  135 2   
   139  134  142 1   
   140  136  139 1   
   141  136  140 1   
   142  136  141 1   
   143  142  143 1   
   144  142  147 1   
   145  143  144 1   
   146  143  146 1   
   147  143  148 1   
   148  144  145 2   
   149  144  152 1   
   150  146  149 1   
   151  146  150 1   
   152  146  151 1   
   153  152  153 1   
   154  152  161 1   
   155  153  154 1   
   156  153  156 1   
   157  153  162 1   
   158  154  155 2   
   159  154  167 1   
   160  156  157 1   
   161  156  163 1   
   162  156  164 1   
   163  157  158 1   
   164  157  165 1   
   165  157  166 1   
   166  158  159 1   
   167  158  160 1   
   168  167  168 1   
   169  167  172 1   
   170  168  169 1   
   171  168  170 1   
   172  168  171 1   
   173  174  175 1   
   174  174  176 1   
@<TRIPOS>SUBSTRUCTURE
     1 MOL         1 TEMP              0 ****  ****    0 ROOT
