@<TRIPOS>MOLECULE
MOL
  182   178     1     0     0
SMALL
resp


@<TRIPOS>ATOM
      1 C1         -2.0270   -2.0490    5.7860 c3        1 MOL     -0.314225
      2 C2         -1.3600   -2.0510    4.3570 c         1 MOL      0.611769
      3 O1         -2.0120   -1.7400    3.3720 o         1 MOL     -0.561153
      4 H1         -2.2490   -1.0240    6.0820 hc        1 MOL      0.088352
      5 H2         -2.9510   -2.6270    5.7560 hc        1 MOL      0.088352
      6 H3         -1.3410   -2.4950    6.5070 hc        1 MOL      0.088352
      7 N1         -0.1180   -2.4000    4.2650 n         1 MOL     -0.483079
      8 C3          0.6650   -2.2800    3.0510 c3        1 MOL      0.239392
      9 C4          0.8750   -3.6300    2.4190 c         1 MOL      0.267859
     10 O2          1.7060   -4.4580    2.8560 o         1 MOL     -0.484788
     11 C5          1.9290   -1.4430    3.2650 c3        1 MOL     -0.182705
     12 C6          2.8240   -1.1200    2.0230 c         1 MOL      0.918544
     13 O3          2.4180   -1.2980    0.8820 o         1 MOL     -0.814904
     14 O4          3.9650   -0.6620    2.1320 o         1 MOL     -0.814904
     15 H4          0.4430   -2.6410    5.0730 hn        1 MOL      0.311423
     16 H5          0.0590   -1.6830    2.3700 h1        1 MOL     -0.023766
     17 H6          2.4630   -1.9890    4.0420 hc        1 MOL      0.024425
     18 H7          1.5750   -0.5260    3.7340 hc        1 MOL      0.024425
     19 N2          0.0400   -3.8870    1.4020 n         1 MOL     -0.088938
     20 C7         -0.1810   -5.3040    1.0540 c3        1 MOL      0.015783
     21 C8          0.9960   -5.8090    0.2380 c         1 MOL      0.387169
     22 O5          1.2150   -6.9960    0.1490 o         1 MOL     -0.562674
     23 C9         -1.5130   -5.6180    0.3860 c3        1 MOL     -0.290878
     24 C10        -1.6990   -4.8900   -0.9740 c3        1 MOL      0.635172
     25 C11        -3.0210   -5.3550   -1.6000 c3        1 MOL     -0.220005
     26 C12        -3.0320   -4.8640   -3.0300 c3        1 MOL      0.040001
     27 N3         -4.3380   -5.1640   -3.6320 n4        1 MOL     -0.086744
     28 H8         -0.6800   -3.2240    1.1560 hn        1 MOL      0.181614
     29 H9         -0.1670   -5.8940    1.9700 h1        1 MOL      0.097305
     30 H10        -2.3140   -5.3370    1.0680 hc        1 MOL      0.067847
     31 H11        -1.5840   -6.6720    0.1260 hc        1 MOL      0.067847
     32 H12        -0.9000   -5.2330   -1.6360 hc        1 MOL     -0.125731
     33 H13        -1.6880   -3.8020   -0.8980 hc        1 MOL     -0.125731
     34 H14        -3.8350   -4.8480   -1.0690 hc        1 MOL      0.049548
     35 H15        -3.0560   -6.4480   -1.6470 hc        1 MOL      0.049548
     36 H16        -2.2760   -5.4120   -3.5980 hx        1 MOL      0.043394
     37 H17        -2.8310   -3.7950   -2.9870 hx        1 MOL      0.043394
     38 H18        -4.6740   -6.1060   -3.5560 hn        1 MOL      0.255884
     39 H19        -5.1190   -4.6040   -3.3260 hn        1 MOL      0.255884
     40 H20        -4.2900   -5.0070   -4.6340 hn        1 MOL      0.255884
     41 N4          1.7720   -4.9490   -0.3320 n         1 MOL     -0.115812
     42 C13         2.9800   -5.3060   -1.1030 c3        1 MOL      0.034239
     43 C14         4.2720   -4.7450   -0.3990 c         1 MOL      0.496528
     44 O6          5.3400   -4.8060   -0.9800 o         1 MOL     -0.533894
     45 C15         2.8660   -4.8950   -2.5960 c3        1 MOL     -0.294834
     46 C16         2.3040   -3.5040   -2.8650 c         1 MOL      0.769712
     47 O7          2.1340   -2.6780   -1.8970 o         1 MOL     -0.710362
     48 O8          1.8290   -3.2680   -4.0330 o         1 MOL     -0.710362
     49 H21         1.5380   -3.9780   -0.4050 hn        1 MOL      0.073845
     50 H22         3.1150   -6.3840   -1.0010 h1        1 MOL      0.100592
     51 H23         2.1210   -5.5980   -2.9730 hc        1 MOL      0.094477
     52 H24         3.7810   -5.0410   -3.1540 hc        1 MOL      0.094477
     53 N5          4.1520   -4.2440    0.8410 n         1 MOL     -0.343258
     54 C17         5.3030   -3.7440    1.5820 c3        1 MOL      0.003244
     55 C18         6.0940   -2.6190    0.8160 c         1 MOL      0.458869
     56 O9          7.2710   -2.4410    1.0290 o         1 MOL     -0.596053
     57 H25         3.2770   -4.0170    1.2920 hn        1 MOL      0.195174
     58 H26         6.0390   -4.5380    1.7680 h1        1 MOL      0.078046
     59 H27         5.0250   -3.4300    2.5850 h1        1 MOL      0.078046
     60 N6          5.5740   -1.7930   -0.0700 n         1 MOL     -0.026766
     61 C19         6.2290   -0.7990   -0.8370 c3        1 MOL     -0.116223
     62 C20         6.5170    0.5720   -0.1120 c         1 MOL      0.318952
     63 O10         7.0480    1.4890   -0.6950 o         1 MOL     -0.475863
     64 C21         5.5680   -0.6990   -2.1720 c3        1 MOL     -0.356261
     65 C22         4.5810    0.4780   -2.2620 c         1 MOL      0.457482
     66 N7          4.7410    1.3610   -3.2230 n         1 MOL     -0.645538
     67 O11         3.6380    0.6290   -1.5660 o         1 MOL     -0.235232
     68 H28         4.5600   -1.7950   -0.1190 hn        1 MOL      0.060975
     69 H29         7.2430   -1.1540   -0.9790 h1        1 MOL      0.153655
     70 H30         5.0710   -1.6400   -2.4130 hc        1 MOL      0.146271
     71 H31         6.3700   -0.5450   -2.8860 hc        1 MOL      0.146271
     72 H32         5.4780    1.1710   -3.8850 hn        1 MOL      0.324523
     73 H33         4.0040    2.0320   -3.3710 hn        1 MOL      0.324523
     74 N8          6.0520    0.6800    1.0780 n         1 MOL     -0.102084
     75 C23         6.1480    1.9720    1.8410 c3        1 MOL     -0.328628
     76 C24         5.0560    3.0230    1.5420 c         1 MOL      0.691518
     77 O12         5.0860    4.0770    2.0930 o         1 MOL     -0.560631
     78 H34         5.6320   -0.1250    1.5170 hn        1 MOL      0.285573
     79 H35         7.1570    2.3790    1.9020 h1        1 MOL      0.131798
     80 H36         5.9310    1.6690    2.8670 h1        1 MOL      0.131798
     81 N9          3.9980    2.5650    0.8150 n         1 MOL     -0.330572
     82 C25         2.8170    3.4330    0.6010 c3        1 MOL      0.207017
     83 C26         1.5030    2.6560    0.6990 c         1 MOL      0.592454
     84 O13         1.4570    1.4480    0.4470 o         1 MOL     -0.664372
     85 C27         2.9170    4.0630   -0.8000 c3        1 MOL      0.179085
     86 C28         3.9250    5.1720   -0.9480 ca        1 MOL     -0.256288
     87 C29         5.2370    4.8410   -1.4160 ca        1 MOL     -0.018846
     88 C30         3.6750    6.5420   -0.5540 ca        1 MOL     -0.018846
     89 C31         6.2340    5.7800   -1.6170 ca        1 MOL     -0.328765
     90 C32         4.7220    7.5030   -0.7940 ca        1 MOL     -0.328765
     91 C33         6.0370    7.1210   -1.3120 ca        1 MOL      0.425360
     92 O14         7.0270    7.9780   -1.4810 oh        1 MOL     -0.495276
     93 H37         3.8870    1.5820    0.6170 hn        1 MOL      0.139240
     94 H38         2.8020    4.1880    1.3830 h1        1 MOL     -0.011544
     95 H39         1.9800    4.5860   -1.0050 hc        1 MOL     -0.036755
     96 H40         3.0400    3.2870   -1.5670 hc        1 MOL     -0.036755
     97 H41         5.4990    3.8130   -1.6200 ha        1 MOL      0.092078
     98 H42         2.7260    6.8740   -0.1580 ha        1 MOL      0.092078
     99 H43         7.1710    5.4760   -2.0530 ha        1 MOL      0.144044
    100 H44         4.5300    8.5520   -0.5960 ha        1 MOL      0.144044
    101 H45         7.0040    8.8290   -1.0330 ho        1 MOL      0.375678
    102 N10         0.4450    3.3500    1.1330 n         1 MOL     -0.637759
    103 C34        -0.8890    2.9110    1.5390 c3        1 MOL     -0.095029
    104 C35        -1.9120    3.7670    0.8390 c         1 MOL      0.482850
    105 O15        -2.1070    4.9570    1.1510 o         1 MOL     -0.536510
    106 C36        -1.1670    2.9550    3.0450 c3        1 MOL      0.223840
    107 C37        -0.1180    2.1870    3.9140 c3        1 MOL      0.121969
    108 C38        -2.5940    2.3910    3.3280 c3        1 MOL     -0.333633
    109 C39        -0.1940    2.3670    5.4420 c3        1 MOL     -0.277054
    110 H46         0.6270    4.3090    1.3560 hn        1 MOL      0.350818
    111 H47        -1.0160    1.8770    1.2210 h1        1 MOL      0.121309
    112 H48        -1.1650    3.9940    3.3540 hc        1 MOL     -0.004501
    113 H49         0.8630    2.5670    3.6090 hc        1 MOL      0.001222
    114 H50        -0.1630    1.1330    3.6320 hc        1 MOL      0.001222
    115 H51        -2.7150    2.3690    4.4100 hc        1 MOL      0.075543
    116 H52        -3.3830    3.0410    2.9670 hc        1 MOL      0.075543
    117 H53        -2.7350    1.3920    2.9250 hc        1 MOL      0.075543
    118 H54        -1.0820    1.9740    5.9490 hc        1 MOL      0.065338
    119 H55         0.6290    1.9100    5.9930 hc        1 MOL      0.065338
    120 H56        -0.1620    3.4490    5.5950 hc        1 MOL      0.065338
    121 N11        -2.5440    3.1660   -0.1300 n         1 MOL     -0.319431
    122 C40        -3.7120    3.5580   -0.9650 c3        1 MOL     -0.072369
    123 C41        -5.1010    3.2820   -0.3620 c         1 MOL      0.596285
    124 O16        -5.2560    2.4570    0.5130 o         1 MOL     -0.464779
    125 C42        -3.5840    2.9350   -2.3310 c3        1 MOL     -0.156299
    126 O17        -3.6610    1.5530   -2.2170 oh        1 MOL     -0.475005
    127 H57        -2.1600    2.2420   -0.2720 hn        1 MOL      0.411343
    128 H58        -3.7510    4.6420   -1.0540 h1        1 MOL      0.069223
    129 H59        -2.6670    3.2380   -2.8350 h1        1 MOL      0.103398
    130 H60        -4.4710    3.1770   -2.9150 h1        1 MOL      0.103398
    131 H61        -2.7890    1.2930   -1.9070 ho        1 MOL      0.345759
    132 N12        -6.1410    3.9990   -0.8390 n         1 MOL     -0.479189
    133 C43        -7.5620    3.8060   -0.5850 c3        1 MOL      0.079203
    134 C44        -8.0240    2.3570   -0.9590 c         1 MOL      0.622108
    135 O18        -8.8360    1.8290   -0.2290 o         1 MOL     -0.523763
    136 C45        -8.3180    4.8540   -1.4440 c3        1 MOL     -0.312925
    137 H62        -5.8550    4.6910   -1.5200 hn        1 MOL      0.285652
    138 H63        -7.7860    3.9620    0.4650 h1        1 MOL      0.102742
    139 H64        -7.8570    4.7800   -2.4330 hc        1 MOL      0.099492
    140 H65        -9.3760    4.6090   -1.4500 hc        1 MOL      0.099492
    141 H66        -8.2170    5.8410   -1.0000 hc        1 MOL      0.099492
    142 N13        -7.5090    1.7520   -2.0500 n         1 MOL     -0.588219
    143 C46        -7.7020    0.2890   -2.2620 c3        1 MOL      0.139168
    144 C47        -7.0940   -0.6670   -1.2680 c         1 MOL      0.274265
    145 O19        -7.6090   -1.7720   -0.9640 o         1 MOL     -0.521919
    146 C48        -7.2620   -0.1190   -3.7220 c3        1 MOL     -0.319231
    147 H67        -6.7390    2.1350   -2.5790 hn        1 MOL      0.350389
    148 H68        -8.7880    0.1720   -2.2570 h1        1 MOL      0.106174
    149 H69        -7.4740   -1.1730   -3.9270 hc        1 MOL      0.087048
    150 H70        -7.7920    0.3700   -4.5410 hc        1 MOL      0.087048
    151 H71        -6.1960    0.1340   -3.7630 hc        1 MOL      0.087048
    152 N14        -6.0250   -0.2140   -0.6620 n         1 MOL      0.054197
    153 C49        -5.4350   -1.0340    0.5100 c3        1 MOL     -0.287639
    154 C50        -6.2560   -0.7840    1.8460 c         1 MOL      0.583559
    155 O20        -6.3690   -1.7320    2.6460 o         1 MOL     -0.548384
    156 C51        -3.9990   -0.5730    0.6440 c3        1 MOL      0.198472
    157 C52        -3.2140   -1.1440   -0.5170 c3        1 MOL      0.099797
    158 C53        -1.7690   -0.6060   -0.5330 c         1 MOL      0.731905
    159 O21        -0.8770   -1.4260   -0.2230 o         1 MOL     -0.726635
    160 O22        -1.4670    0.5160   -0.9380 o         1 MOL     -0.726635
    161 H72        -5.5050    0.5920   -0.9910 hn        1 MOL      0.094934
    162 H73        -5.4690   -2.0630    0.1550 h1        1 MOL      0.127748
    163 H74        -3.4830   -0.9530    1.5200 hc        1 MOL     -0.030025
    164 H75        -3.8420    0.5040    0.5920 hc        1 MOL     -0.030025
    165 H76        -3.6570   -0.9070   -1.4780 hc        1 MOL     -0.094017
    166 H77        -3.2160   -2.2200   -0.3470 hc        1 MOL     -0.094017
    167 N15        -6.7560    0.4500    2.0660 n         1 MOL     -0.176746
    168 C54        -7.5810    0.8650    3.2300 c3        1 MOL     -0.492758
    169 H78        -7.5360    1.9490    3.3380 h1        1 MOL      0.177309
    170 H79        -8.6150    0.5590    3.0720 h1        1 MOL      0.177309
    171 H80        -7.1960    0.3950    4.1360 h1        1 MOL      0.177309
    172 H81        -6.6850    1.0880    1.2980 hn        1 MOL      0.168053
    173 Ca1         1.1580   -0.4260   -1.2140 Ca        1 MOL      1.777453
    174 O23        -0.3240   -1.8980   -3.1530 oh        1 MOL     -0.874081
    175 H82         0.2800   -2.6260   -3.3470 ho        1 MOL      0.402012
    176 H83        -1.0170   -1.9840   -3.8010 ho        1 MOL      0.402012
    177 O24         0.9940    1.9540   -2.4540 oh        1 MOL     -0.874081
    178 H84         1.6460    2.3200   -3.0470 ho        1 MOL      0.402012
    179 H85         0.3670    2.6620   -2.3160 ho        1 MOL      0.402012
    180 O25         2.3480   -0.4080   -3.9740 oh        1 MOL     -0.874081
    181 H86         2.4400    0.1950   -4.7100 ho        1 MOL      0.402012
    182 H87         2.1750   -1.2580   -4.3750 ho        1 MOL      0.402012
@<TRIPOS>BOND
     1    1    2 1   
     2    1    4 1   
     3    1    5 1   
     4    1    6 1   
     5    2    3 2   
     6    2    7 1   
     7    7    8 1   
     8    7   15 1   
     9    8    9 1   
    10    8   11 1   
    11    8   16 1   
    12    9   10 2   
    13    9   19 1   
    14   11   12 1   
    15   11   17 1   
    16   11   18 1   
    17   12   13 1   
    18   12   14 1   
    19   19   20 1   
    20   19   28 1   
    21   20   21 1   
    22   20   23 1   
    23   20   29 1   
    24   21   22 2   
    25   21   41 1   
    26   23   24 1   
    27   23   30 1   
    28   23   31 1   
    29   24   25 1   
    30   24   32 1   
    31   24   33 1   
    32   25   26 1   
    33   25   34 1   
    34   25   35 1   
    35   26   27 1   
    36   26   36 1   
    37   26   37 1   
    38   27   38 1   
    39   27   39 1   
    40   27   40 1   
    41   41   42 1   
    42   41   49 1   
    43   42   43 1   
    44   42   45 1   
    45   42   50 1   
    46   43   44 2   
    47   43   53 1   
    48   45   46 1   
    49   45   51 1   
    50   45   52 1   
    51   46   47 1   
    52   46   48 1   
    53   53   54 1   
    54   53   57 1   
    55   54   55 1   
    56   54   58 1   
    57   54   59 1   
    58   55   56 2   
    59   55   60 1   
    60   60   61 1   
    61   60   68 1   
    62   61   62 1   
    63   61   64 1   
    64   61   69 1   
    65   62   63 2   
    66   62   74 1   
    67   64   65 1   
    68   64   70 1   
    69   64   71 1   
    70   65   66 1   
    71   65   67 2   
    72   66   72 1   
    73   66   73 1   
    74   74   75 1   
    75   74   78 1   
    76   75   76 1   
    77   75   79 1   
    78   75   80 1   
    79   76   77 2   
    80   76   81 1   
    81   81   82 1   
    82   81   93 1   
    83   82   83 1   
    84   82   85 1   
    85   82   94 1   
    86   83   84 2   
    87   83  102 1   
    88   85   86 1   
    89   85   95 1   
    90   85   96 1   
    91   86   87 ar  
    92   86   88 ar  
    93   87   89 ar  
    94   87   97 1   
    95   88   90 ar  
    96   88   98 1   
    97   89   91 ar  
    98   89   99 1   
    99   90   91 ar  
   100   90  100 1   
   101   91   92 1   
   102   92  101 1   
   103  102  103 1   
   104  102  110 1   
   105  103  104 1   
   106  103  106 1   
   107  103  111 1   
   108  104  105 2   
   109  104  121 1   
   110  106  107 1   
   111  106  108 1   
   112  106  112 1   
   113  107  109 1   
   114  107  113 1   
   115  107  114 1   
   116  108  115 1   
   117  108  116 1   
   118  108  117 1   
   119  109  118 1   
   120  109  119 1   
   121  109  120 1   
   122  121  122 1   
   123  121  127 1   
   124  122  123 1   
   125  122  125 1   
   126  122  128 1   
   127  123  124 2   
   128  123  132 1   
   129  125  126 1   
   130  125  129 1   
   131  125  130 1   
   132  126  131 1   
   133  132  133 1   
   134  132  137 1   
   135  133  134 1   
   136  133  136 1   
   137  133  138 1   
   138  134  135 2   
   139  134  142 1   
   140  136  139 1   
   141  136  140 1   
   142  136  141 1   
   143  142  143 1   
   144  142  147 1   
   145  143  144 1   
   146  143  146 1   
   147  143  148 1   
   148  144  145 2   
   149  144  152 1   
   150  146  149 1   
   151  146  150 1   
   152  146  151 1   
   153  152  153 1   
   154  152  161 1   
   155  153  154 1   
   156  153  156 1   
   157  153  162 1   
   158  154  155 2   
   159  154  167 1   
   160  156  157 1   
   161  156  163 1   
   162  156  164 1   
   163  157  158 1   
   164  157  165 1   
   165  157  166 1   
   166  158  159 1   
   167  158  160 1   
   168  167  168 1   
   169  167  172 1   
   170  168  169 1   
   171  168  170 1   
   172  168  171 1   
   173  174  175 1   
   174  174  176 1   
   175  177  178 1   
   176  177  179 1   
   177  180  181 1   
   178  180  182 1   
@<TRIPOS>SUBSTRUCTURE
     1 MOL         1 TEMP              0 ****  ****    0 ROOT
