@<TRIPOS>MOLECULE
MOL
  178   175     1     0     0
SMALL
resp


@<TRIPOS>ATOM
      1 C1         -1.4700    3.6240    6.1080 c3        1 MOL     -0.401488
      2 C2         -1.2570    2.8850    4.7570 c         1 MOL      0.717757
      3 O1         -0.0660    2.5760    4.4150 o         1 MOL     -0.582679
      4 H1         -2.3250    4.2940    6.0250 hc        1 MOL      0.100213
      5 H2         -1.6570    2.8940    6.8960 hc        1 MOL      0.100213
      6 H3         -0.5790    4.2020    6.3510 hc        1 MOL      0.100213
      7 N1         -2.3440    2.7120    3.9410 n         1 MOL     -0.633460
      8 C3         -2.2450    2.1220    2.5500 c3        1 MOL      0.167361
      9 C4         -2.4070    3.2900    1.5260 c         1 MOL      0.601564
     10 O2         -3.2620    4.1630    1.7600 o         1 MOL     -0.576369
     11 C5         -3.3450    1.0610    2.4380 c3        1 MOL     -0.173196
     12 C6         -3.3950    0.4810    0.9670 c         1 MOL      0.423254
     13 O3         -2.8500    0.9810   -0.0200 o         1 MOL     -0.393811
     14 O4         -4.1220   -0.4880    0.7870 o         1 MOL     -0.393811
     15 H4         -3.2450    3.0960    4.1770 hn        1 MOL      0.330095
     16 H5         -1.2380    1.7380    2.3360 h1        1 MOL      0.081425
     17 H6         -4.3230    1.5360    2.5320 hc        1 MOL      0.051910
     18 H7         -3.3520    0.1920    3.0860 hc        1 MOL      0.051910
     19 N2         -1.4940    3.3710    0.5260 n         1 MOL     -0.504564
     20 C7         -1.5590    4.5490   -0.4330 c3        1 MOL      0.184567
     21 C8         -2.8150    4.6880   -1.3290 c         1 MOL      0.439987
     22 O5         -3.0390    5.8110   -1.8980 o         1 MOL     -0.581376
     23 C9         -0.2060    4.6590   -1.2210 c3        1 MOL     -0.172289
     24 H8         -0.8790    2.6260    0.2370 hn        1 MOL      0.235591
     25 H9         -1.6640    5.4210    0.2150 h1        1 MOL      0.050079
     26 H10        -0.1160    5.6430   -1.6760 hc        1 MOL      0.052114
     27 H11         0.5680    4.6400   -0.4460 hc        1 MOL      0.052114
     28 H12        -0.0890    3.7790   -1.8560 hc        1 MOL      0.052114
     29 N3         -3.6840    3.6950   -1.4030 n         1 MOL     -0.173401
     30 C10        -4.8350    3.5920   -2.2960 c3        1 MOL      0.080969
     31 C11        -6.0770    3.1770   -1.4900 c         1 MOL      0.301580
     32 O6         -7.2120    3.5210   -1.8190 o         1 MOL     -0.516943
     33 C12        -4.4780    2.6480   -3.4590 c3        1 MOL     -0.158349
     34 C13        -3.8660    1.3100   -3.1090 c         1 MOL      0.770545
     35 O7         -2.5970    1.3320   -3.0810 o         1 MOL     -0.700512
     36 O8         -4.5100    0.2340   -3.1310 o         1 MOL     -0.700512
     37 H13        -3.5020    2.8030   -0.9800 hn        1 MOL     -0.004297
     38 H14        -5.0720    4.5250   -2.8080 h1        1 MOL      0.085287
     39 H15        -3.8570    3.2020   -4.1490 hc        1 MOL      0.042321
     40 H16        -5.3660    2.4340   -4.0490 hc        1 MOL      0.042321
     41 N4         -5.8700    2.4820   -0.3840 n         1 MOL      0.083123
     42 C14        -6.8680    2.2230    0.6570 c3        1 MOL     -0.277865
     43 C15        -7.7670    0.9380    0.4670 c         1 MOL      0.469690
     44 O9         -8.9470    0.9300    0.9580 o         1 MOL     -0.556666
     45 H17        -4.9030    2.2340   -0.2440 hn        1 MOL     -0.011512
     46 H18        -7.5490    3.0670    0.6920 h1        1 MOL      0.127975
     47 H19        -6.5110    2.1470    1.6850 h1        1 MOL      0.127975
     48 N5         -7.1990   -0.1020   -0.1670 n         1 MOL     -0.019058
     49 C16        -7.9070   -1.3730   -0.5140 c3        1 MOL     -0.049312
     50 C17        -7.5590   -2.4900    0.4440 c         1 MOL      0.347042
     51 O10        -8.3330   -3.4600    0.5060 o         1 MOL     -0.519353
     52 C18        -7.5900   -1.7760   -1.9600 c3        1 MOL     -0.120999
     53 C19        -8.2470   -0.7370   -2.8730 c         1 MOL      0.565768
     54 N6         -7.3760    0.0560   -3.4930 n         1 MOL     -0.760859
     55 O11        -9.4470   -0.5760   -2.9390 o         1 MOL     -0.564877
     56 H20        -6.2480   -0.1230   -0.4910 hn        1 MOL     -0.017502
     57 H21        -8.9770   -1.2040   -0.4690 h1        1 MOL      0.117128
     58 H22        -8.0870   -2.7220   -2.1910 hc        1 MOL      0.055214
     59 H23        -6.5320   -1.9170   -2.1740 hc        1 MOL      0.055214
     60 H24        -6.4030   -0.0490   -3.2210 hn        1 MOL      0.364164
     61 H25        -7.8050    0.7190   -4.1190 hn        1 MOL      0.364164
     62 N7         -6.4560   -2.3460    1.1800 n         1 MOL     -0.096439
     63 C20        -6.1830   -3.2560    2.2060 c3        1 MOL      0.046729
     64 C21        -4.7560   -3.6790    2.4200 c         1 MOL      0.558800
     65 O12        -4.4570   -4.6320    3.1040 o         1 MOL     -0.599532
     66 H26        -5.9650   -1.4600    1.1800 hn        1 MOL      0.064623
     67 H27        -6.7170   -4.1930    2.0620 h1        1 MOL      0.029637
     68 H28        -6.4720   -2.8380    3.1790 h1        1 MOL      0.029637
     69 N8         -3.8240   -3.1280    1.6310 n         1 MOL     -0.468136
     70 C22        -2.5740   -3.8620    1.3550 c3        1 MOL      0.131907
     71 C23        -1.3970   -2.8430    1.1080 c         1 MOL      0.412482
     72 O13        -1.4390   -1.9970    0.2470 o         1 MOL     -0.499093
     73 C24        -2.6590   -4.8510    0.1860 c3        1 MOL      0.350694
     74 C25        -1.5380   -5.9010    0.1170 c3        1 MOL     -0.443814
     75 O14        -3.8470   -5.5530    0.3280 oh        1 MOL     -0.547648
     76 H29        -4.1280   -2.3170    1.1200 hn        1 MOL      0.129258
     77 H30        -2.3120   -4.3800    2.2800 h1        1 MOL      0.072709
     78 H31        -2.7180   -4.2410   -0.7200 h1        1 MOL      0.020312
     79 H32        -4.3850   -5.3620   -0.4390 ho        1 MOL      0.358205
     80 H33        -0.5560   -5.4520    0.0370 hc        1 MOL      0.102108
     81 H34        -1.4860   -6.5170    1.0260 hc        1 MOL      0.102108
     82 H35        -1.7080   -6.5320   -0.7540 hc        1 MOL      0.102108
     83 N9         -0.3850   -3.0000    1.9030 n         1 MOL     -0.270486
     84 C26         0.7900   -2.0610    1.9730 c3        1 MOL     -0.003539
     85 C27         1.8160   -2.7590    1.0030 c         1 MOL      0.338258
     86 O15         2.0390   -3.9770    1.0390 o         1 MOL     -0.555295
     87 C28         1.2670   -1.8150    3.3860 c3        1 MOL      0.527302
     88 C29         0.3000   -1.1990    4.3840 c3        1 MOL      0.113268
     89 C30         2.6010   -1.0510    3.3880 c3        1 MOL     -0.514511
     90 C31        -1.1080   -1.8560    4.5500 c3        1 MOL     -0.220783
     91 H36        -0.4410   -3.7700    2.5560 hn        1 MOL      0.197273
     92 H37         0.5760   -1.0480    1.6280 h1        1 MOL      0.014324
     93 H38         1.4640   -2.7820    3.8520 hc        1 MOL     -0.108339
     94 H39         0.1720   -0.1350    4.1880 hc        1 MOL     -0.043469
     95 H40         0.8570   -1.3240    5.3120 hc        1 MOL     -0.043469
     96 H41         3.1080   -1.1580    4.3460 hc        1 MOL      0.097635
     97 H42         3.2710   -1.5870    2.7100 hc        1 MOL      0.097635
     98 H43         2.4000   -0.0370    3.0470 hc        1 MOL      0.097635
     99 H44        -0.9770   -2.9330    4.6740 hc        1 MOL      0.038883
    100 H45        -1.6230   -1.4600    5.4190 hc        1 MOL      0.038883
    101 H46        -1.7630   -1.5960    3.7110 hc        1 MOL      0.038883
    102 N10         2.4600   -1.8950    0.2020 n         1 MOL     -0.017872
    103 C32         3.5810   -2.2380   -0.7040 c3        1 MOL      0.143506
    104 C33         4.9630   -1.5750   -0.2030 c         1 MOL      0.288003
    105 O16         4.8770   -0.6250    0.5550 o         1 MOL     -0.274964
    106 C34         3.3720   -1.8340   -2.1340 c3        1 MOL     -0.159114
    107 C35         1.9940   -2.0060   -2.8400 c         1 MOL      0.739071
    108 O17         2.0400   -2.2290   -4.0640 o         1 MOL     -0.709895
    109 O18         0.9510   -1.8630   -2.2290 o         1 MOL     -0.709895
    110 H47         2.3410   -0.8960    0.2760 hn        1 MOL     -0.092127
    111 H48         3.7460   -3.3100   -0.7620 h1        1 MOL      0.034227
    112 H49         4.1020   -2.3750   -2.7370 hc        1 MOL      0.035612
    113 H50         3.5680   -0.7670   -2.1640 hc        1 MOL      0.035612
    114 N11         6.0690   -2.0430   -0.7030 n         1 MOL     -0.526841
    115 C36         7.4740   -1.6880   -0.3770 c3        1 MOL      0.172641
    116 C37         7.5900   -0.1200   -0.1440 c         1 MOL      0.466996
    117 O19         8.0110    0.2270    0.9610 o         1 MOL     -0.533514
    118 C38         8.4410   -2.3120   -1.3960 c3        1 MOL     -0.093782
    119 C39         9.9470   -1.9280   -1.2840 ca        1 MOL      0.029752
    120 C40        10.5210   -2.0280   -0.0200 ca        1 MOL     -0.153529
    121 C41        10.6520   -1.3670   -2.3850 ca        1 MOL     -0.153529
    122 C42        11.8100   -1.4680    0.0770 ca        1 MOL     -0.083618
    123 C43        12.0280   -1.1250   -2.2560 ca        1 MOL     -0.083618
    124 C44        12.6100   -1.0510   -1.0240 ca        1 MOL     -0.128939
    125 H51         5.9450   -2.8600   -1.2820 hn        1 MOL      0.317072
    126 H52         7.7270   -2.1380    0.5850 h1        1 MOL      0.085447
    127 H53         8.1780   -2.0520   -2.4250 hc        1 MOL      0.043692
    128 H54         8.3880   -3.3970   -1.4230 hc        1 MOL      0.043692
    129 H55         9.9450   -2.3470    0.8400 ha        1 MOL      0.123280
    130 H56        10.2090   -1.2880   -3.3600 ha        1 MOL      0.123280
    131 H57        12.2900   -1.4540    1.0460 ha        1 MOL      0.094565
    132 H58        12.5700   -0.8940   -3.1700 ha        1 MOL      0.094565
    133 H59        13.6460   -0.7660   -0.9400 ha        1 MOL      0.112048
    134 N12         7.2160    0.8050   -1.0490 n         1 MOL     -0.149538
    135 C45         7.4660    2.2440   -0.7830 c3        1 MOL     -0.015045
    136 C46         6.3650    2.8680    0.0890 c         1 MOL      0.427786
    137 O20         6.6050    3.8770    0.7570 o         1 MOL     -0.505932
    138 C47         7.5310    2.8420   -2.1640 c3        1 MOL     -0.059546
    139 C48         6.6790    1.8420   -2.9770 c3        1 MOL     -0.012387
    140 C49         6.5530    0.5650   -2.2350 c3        1 MOL      0.008662
    141 H60         8.4010    2.4580   -0.2680 h1        1 MOL      0.099116
    142 H61         7.2990    3.8990   -2.2210 hc        1 MOL      0.038974
    143 H62         8.5820    2.7950   -2.4320 hc        1 MOL      0.038974
    144 H63         5.7210    2.3250   -3.1860 hc        1 MOL      0.021079
    145 H64         7.1910    1.6890   -3.9280 hc        1 MOL      0.021079
    146 H65         5.5600    0.1250   -2.2920 h1        1 MOL      0.025249
    147 H66         7.1110   -0.1240   -2.8770 h1        1 MOL      0.025249
    148 N13         5.1600    2.1920    0.1720 n         1 MOL     -0.270686
    149 C50         4.0840    2.6490    1.1560 c3        1 MOL     -0.209787
    150 C51         4.5260    2.3730    2.6300 c         1 MOL      0.451161
    151 O21         4.2400    3.1980    3.4970 o         1 MOL     -0.545566
    152 C52         2.7330    1.8730    0.7650 c3        1 MOL      0.033480
    153 C53         2.3030    2.0790   -0.6590 c3        1 MOL     -0.017878
    154 C54         0.9790    1.4070   -1.0540 c         1 MOL      0.771537
    155 O22         0.2190    1.0480   -0.1360 o         1 MOL     -0.753091
    156 O23         0.7050    1.1330   -2.2350 o         1 MOL     -0.753091
    157 H67         5.1140    1.2140   -0.0810 hn        1 MOL      0.188398
    158 H68         3.9350    3.7260    1.0650 h1        1 MOL      0.146013
    159 H69         1.9280    2.1250    1.4650 hc        1 MOL      0.069223
    160 H70         2.9040    0.8590    1.1060 hc        1 MOL      0.069223
    161 H71         3.0820    1.7640   -1.3600 hc        1 MOL     -0.002277
    162 H72         2.0680    3.1270   -0.7940 hc        1 MOL     -0.002277
    163 N14         5.3230    1.3430    2.8370 n         1 MOL      0.023821
    164 C55         6.0090    1.0290    4.0840 c3        1 MOL     -0.103263
    165 H73         5.3180    0.5290    4.7620 h1        1 MOL      0.050472
    166 H74         6.8550    0.3730    3.8790 h1        1 MOL      0.050472
    167 H75         6.3670    1.9500    4.5440 h1        1 MOL      0.050472
    168 H76         5.5060    0.7770    2.0220 hn        1 MOL      0.029925
    169 Ca1        -1.2160   -0.4190   -1.8090 Ca        1 MOL      1.671242
    170 O24        -3.7700   -1.6950   -1.6080 oh        1 MOL     -0.820948
    171 H77        -4.0890   -1.1100   -2.2980 ho        1 MOL      0.394189
    172 H78        -4.0770   -1.3140   -0.7950 ho        1 MOL      0.394189
    173 O25        -0.6630   -0.7120   -4.4900 oh        1 MOL     -0.820948
    174 H79         0.2060   -1.1150   -4.4050 ho        1 MOL      0.394189
    175 H80        -0.6030   -0.2100   -5.3050 ho        1 MOL      0.394189
    176 O26        -1.3670   -2.9480   -2.5550 oh        1 MOL     -0.820948
    177 H81        -1.7050   -3.6900   -3.0490 ho        1 MOL      0.394189
    178 H82        -0.4290   -3.1230   -2.4630 ho        1 MOL      0.394189
@<TRIPOS>BOND
     1    1    2 1   
     2    1    4 1   
     3    1    5 1   
     4    1    6 1   
     5    2    3 2   
     6    2    7 1   
     7    7    8 1   
     8    7   15 1   
     9    8    9 1   
    10    8   11 1   
    11    8   16 1   
    12    9   10 2   
    13    9   19 1   
    14   11   12 1   
    15   11   17 1   
    16   11   18 1   
    17   12   13 1   
    18   12   14 1   
    19   19   20 1   
    20   19   24 1   
    21   20   21 1   
    22   20   23 1   
    23   20   25 1   
    24   21   22 2   
    25   21   29 1   
    26   23   26 1   
    27   23   27 1   
    28   23   28 1   
    29   29   30 1   
    30   29   37 1   
    31   30   31 1   
    32   30   33 1   
    33   30   38 1   
    34   31   32 2   
    35   31   41 1   
    36   33   34 1   
    37   33   39 1   
    38   33   40 1   
    39   34   35 1   
    40   34   36 1   
    41   41   42 1   
    42   41   45 1   
    43   42   43 1   
    44   42   46 1   
    45   42   47 1   
    46   43   44 2   
    47   43   48 1   
    48   48   49 1   
    49   48   56 1   
    50   49   50 1   
    51   49   52 1   
    52   49   57 1   
    53   50   51 2   
    54   50   62 1   
    55   52   53 1   
    56   52   58 1   
    57   52   59 1   
    58   53   54 1   
    59   53   55 2   
    60   54   60 1   
    61   54   61 1   
    62   62   63 1   
    63   62   66 1   
    64   63   64 1   
    65   63   67 1   
    66   63   68 1   
    67   64   65 2   
    68   64   69 1   
    69   69   70 1   
    70   69   76 1   
    71   70   71 1   
    72   70   73 1   
    73   70   77 1   
    74   71   72 2   
    75   71   83 1   
    76   73   74 1   
    77   73   75 1   
    78   73   78 1   
    79   74   80 1   
    80   74   81 1   
    81   74   82 1   
    82   75   79 1   
    83   83   84 1   
    84   83   91 1   
    85   84   85 1   
    86   84   87 1   
    87   84   92 1   
    88   85   86 2   
    89   85  102 1   
    90   87   88 1   
    91   87   89 1   
    92   87   93 1   
    93   88   90 1   
    94   88   94 1   
    95   88   95 1   
    96   89   96 1   
    97   89   97 1   
    98   89   98 1   
    99   90   99 1   
   100   90  100 1   
   101   90  101 1   
   102  102  103 1   
   103  102  110 1   
   104  103  104 1   
   105  103  106 1   
   106  103  111 1   
   107  104  105 2   
   108  104  114 1   
   109  106  107 1   
   110  106  112 1   
   111  106  113 1   
   112  107  108 1   
   113  107  109 1   
   114  114  115 1   
   115  114  125 1   
   116  115  116 1   
   117  115  118 1   
   118  115  126 1   
   119  116  117 2   
   120  116  134 1   
   121  118  119 1   
   122  118  127 1   
   123  118  128 1   
   124  119  120 ar  
   125  119  121 ar  
   126  120  122 ar  
   127  120  129 1   
   128  121  123 ar  
   129  121  130 1   
   130  122  124 ar  
   131  122  131 1   
   132  123  124 ar  
   133  123  132 1   
   134  124  133 1   
   135  134  135 1   
   136  134  140 1   
   137  135  136 1   
   138  135  138 1   
   139  135  141 1   
   140  136  137 2   
   141  136  148 1   
   142  138  139 1   
   143  138  142 1   
   144  138  143 1   
   145  139  140 1   
   146  139  144 1   
   147  139  145 1   
   148  140  146 1   
   149  140  147 1   
   150  148  149 1   
   151  148  157 1   
   152  149  150 1   
   153  149  152 1   
   154  149  158 1   
   155  150  151 2   
   156  150  163 1   
   157  152  153 1   
   158  152  159 1   
   159  152  160 1   
   160  153  154 1   
   161  153  161 1   
   162  153  162 1   
   163  154  155 1   
   164  154  156 1   
   165  163  164 1   
   166  163  168 1   
   167  164  165 1   
   168  164  166 1   
   169  164  167 1   
   170  170  171 1   
   171  170  172 1   
   172  173  174 1   
   173  173  175 1   
   174  176  177 1   
   175  176  178 1   
@<TRIPOS>SUBSTRUCTURE
     1 MOL         1 TEMP              0 ****  ****    0 ROOT
