@<TRIPOS>MOLECULE
MOL
  189   185     1     0     0
SMALL
resp


@<TRIPOS>ATOM
      1 C1          0.1950    0.4030    6.6270 c3        1 MOL     -0.315239
      2 C2         -0.0060    0.7050    5.1250 c         1 MOL      0.740098
      3 O1          0.8110    1.3550    4.4920 o         1 MOL     -0.620458
      4 H1          0.6920   -0.5600    6.7400 hc        1 MOL      0.084654
      5 H2          0.8090    1.1830    7.0750 hc        1 MOL      0.084654
      6 H3         -0.7750    0.3710    7.1240 hc        1 MOL      0.084654
      7 N1         -1.0920    0.2220    4.5060 n         1 MOL     -0.563067
      8 C3         -1.7290    0.6540    3.2190 c3        1 MOL     -0.075406
      9 C4         -1.9800    2.1680    3.2150 c         1 MOL      0.587812
     10 O2         -2.6340    2.6970    4.1300 o         1 MOL     -0.557617
     11 C5         -3.0050   -0.2260    3.1360 c3        1 MOL     -0.026832
     12 C6         -3.8680   -0.0830    1.8660 c         1 MOL      0.452360
     13 O3         -5.0370    0.3160    2.0620 o         1 MOL     -0.578534
     14 O4         -3.4570   -0.3400    0.7160 o         1 MOL     -0.578534
     15 H4         -1.6520   -0.4420    5.0270 hn        1 MOL      0.305105
     16 H5         -1.0830    0.4560    2.3640 h1        1 MOL      0.041134
     17 H6         -3.6890   -0.2230    3.9750 hc        1 MOL      0.043459
     18 H7         -2.7500   -1.2860    3.2190 hc        1 MOL      0.043459
     19 N2         -1.5050    2.8740    2.1780 n         1 MOL     -0.050979
     20 C7         -1.4740    4.3250    2.0700 c3        1 MOL     -0.252858
     21 C8         -2.7980    4.9200    1.4020 c         1 MOL      0.627803
     22 O5         -3.1760    6.0440    1.6000 o         1 MOL     -0.556556
     23 C9         -0.1830    4.8540    1.3560 c3        1 MOL      0.008481
     24 C10        -0.2360    4.6470   -0.1500 c3        1 MOL      0.101930
     25 C11         1.0300    4.7910   -0.8720 c3        1 MOL      0.006015
     26 C12         0.7840    4.6130   -2.3280 c3        1 MOL      0.225522
     27 N3          2.0470    4.6720   -3.0360 n4        1 MOL     -0.328169
     28 H8         -1.0850    2.3500    1.4240 hn        1 MOL      0.050630
     29 H9         -1.5560    4.8150    3.0360 h1        1 MOL      0.120764
     30 H10         0.6750    4.2390    1.6280 hc        1 MOL      0.030005
     31 H11         0.0320    5.8870    1.6060 hc        1 MOL      0.030005
     32 H12        -0.8870    5.4570   -0.4850 hc        1 MOL     -0.000475
     33 H13        -0.6040    3.6560   -0.3820 hc        1 MOL     -0.000475
     34 H14         1.8310    4.1230   -0.5710 hc        1 MOL     -0.032347
     35 H15         1.3790    5.7980   -0.6580 hc        1 MOL     -0.032347
     36 H16         0.1920    5.4260   -2.7420 hx        1 MOL      0.007851
     37 H17         0.2660    3.6530   -2.2890 hx        1 MOL      0.007851
     38 H18         2.4590    3.7520   -3.0550 hn        1 MOL      0.292959
     39 H19         1.8110    4.8930   -3.9890 hn        1 MOL      0.292959
     40 H20         2.8050    5.2390   -2.6890 hn        1 MOL      0.292959
     41 N4         -3.5520    4.1340    0.6150 n         1 MOL     -0.574743
     42 C13        -4.4820    4.5830   -0.4850 c3        1 MOL      0.233747
     43 C14        -5.7860    3.7250   -0.5920 c         1 MOL      0.304159
     44 O6         -6.4920    3.7500   -1.6360 o         1 MOL     -0.485253
     45 C15        -3.7760    4.6970   -1.8490 c3        1 MOL     -0.210235
     46 C16        -2.8500    3.5340   -2.2660 c         1 MOL      0.927681
     47 O7         -2.1990    3.6000   -3.3650 o         1 MOL     -0.780907
     48 O8         -2.7400    2.5090   -1.5670 o         1 MOL     -0.780907
     49 H21        -3.2820    3.1570    0.6250 hn        1 MOL      0.249316
     50 H22        -4.7750    5.5980   -0.2140 h1        1 MOL      0.076985
     51 H23        -3.1660    5.5880   -1.6930 hc        1 MOL      0.041260
     52 H24        -4.4830    4.9300   -2.6400 hc        1 MOL      0.041260
     53 N5         -6.1670    2.9700    0.4700 n         1 MOL     -0.205727
     54 C17        -7.4540    2.3110    0.5560 c3        1 MOL     -0.321279
     55 C18        -7.7190    1.0420   -0.2930 c         1 MOL      0.538689
     56 O9         -8.8740    0.5440   -0.2210 o         1 MOL     -0.565288
     57 H25        -5.6710    3.0550    1.3520 hn        1 MOL      0.269944
     58 H26        -8.1490    3.0740    0.2150 h1        1 MOL      0.146172
     59 H27        -7.7300    2.0070    1.5630 h1        1 MOL      0.146172
     60 N6         -6.7920    0.6040   -1.1230 n         1 MOL     -0.194406
     61 C19        -7.0730   -0.6790   -1.7180 c3        1 MOL     -0.122543
     62 C20        -6.9290   -1.9270   -0.7640 c         1 MOL      0.405799
     63 O10        -7.4430   -2.9990   -1.0340 o         1 MOL     -0.522222
     64 C21        -6.2670   -0.9120   -3.0500 c3        1 MOL     -0.176943
     65 C22        -4.8090   -0.5000   -2.7700 c         1 MOL      0.577437
     66 O11        -4.4210    0.6310   -3.0560 o         1 MOL     -0.618255
     67 O12        -3.9770   -1.2920   -2.2530 o         1 MOL     -0.618255
     68 H28        -5.8480    0.9370   -1.0130 hn        1 MOL      0.260283
     69 H29        -8.1240   -0.7080   -2.0180 h1        1 MOL      0.142045
     70 H30        -6.7310   -0.2630   -3.7940 hc        1 MOL      0.069705
     71 H31        -6.1740   -1.9620   -3.3470 hc        1 MOL      0.069705
     72 N7         -6.2570   -1.7060    0.3320 n         1 MOL     -0.022039
     73 C23        -5.9850   -2.8360    1.2740 c3        1 MOL     -0.254088
     74 C24        -5.1450   -3.9750    0.7090 c         1 MOL      0.496237
     75 O13        -5.3930   -5.1350    1.0330 o         1 MOL     -0.551364
     76 H32        -5.8090   -0.8170    0.5000 hn        1 MOL      0.096558
     77 H33        -6.8990   -3.2670    1.6730 h1        1 MOL      0.123807
     78 H34        -5.3300   -2.4830    2.0690 h1        1 MOL      0.123807
     79 N8         -4.2190   -3.6260   -0.1870 n         1 MOL      0.011052
     80 C25        -3.0570   -4.4810   -0.6080 c3        1 MOL     -0.259234
     81 C26        -1.6800   -3.7490   -0.3520 c         1 MOL      0.642166
     82 O14        -1.6920   -2.5080   -0.5310 o         1 MOL     -0.721718
     83 C27        -3.0900   -4.9110   -2.1010 c3        1 MOL      0.618089
     84 C28        -4.2530   -5.7870   -2.4020 c3        1 MOL     -0.404376
     85 O15        -3.1210   -3.7700   -2.9510 oh        1 MOL     -0.724182
     86 H35        -4.2430   -2.7020   -0.5910 hn        1 MOL     -0.033907
     87 H36        -2.9520   -5.3620    0.0270 h1        1 MOL      0.060143
     88 H37        -2.2350   -5.5550   -2.3200 h1        1 MOL     -0.055292
     89 H38        -3.5960   -3.0370   -2.5590 ho        1 MOL      0.463787
     90 H39        -4.2570   -6.6680   -1.7530 hc        1 MOL      0.092448
     91 H40        -5.1680   -5.2210   -2.2180 hc        1 MOL      0.092448
     92 H41        -4.2560   -5.9780   -3.4710 hc        1 MOL      0.092448
     93 N9         -0.6830   -4.4210    0.0150 n         1 MOL     -0.591335
     94 C29         0.5430   -3.8220    0.6160 c3        1 MOL      0.041830
     95 C30         1.7350   -4.0460   -0.3240 c         1 MOL      0.584410
     96 O16         2.2370   -5.1790   -0.3540 o         1 MOL     -0.525304
     97 C31         0.8440   -4.2790    2.0180 c3        1 MOL      0.088545
     98 C32        -0.2650   -3.6410    2.8780 c3        1 MOL      0.048188
     99 C33         2.1950   -3.6990    2.4750 c3        1 MOL     -0.289401
    100 C34         0.0230   -3.6480    4.3720 c3        1 MOL     -0.217250
    101 H42        -0.8710   -5.4100    0.1210 hn        1 MOL      0.335869
    102 H43         0.3780   -2.7420    0.6780 h1        1 MOL      0.098318
    103 H44         0.8570   -5.3680    2.0760 hc        1 MOL      0.026243
    104 H45        -1.2690   -4.0460    2.7560 hc        1 MOL      0.029840
    105 H46        -0.3130   -2.5940    2.5810 hc        1 MOL      0.029840
    106 H47         3.0280   -3.8690    1.7820 hc        1 MOL      0.059210
    107 H48         2.0580   -2.6210    2.5810 hc        1 MOL      0.059210
    108 H49         2.4070   -4.0680    3.4750 hc        1 MOL      0.059210
    109 H50         0.9530   -3.2110    4.7370 hc        1 MOL      0.050607
    110 H51        -0.7870   -3.0980    4.8370 hc        1 MOL      0.050607
    111 H52         0.0180   -4.6810    4.7020 hc        1 MOL      0.050607
    112 N10         2.1060   -2.9060   -1.0400 n         1 MOL     -0.404284
    113 C35         3.2750   -2.6140   -1.8260 c3        1 MOL     -0.023504
    114 C36         4.5650   -2.4180   -0.9890 c         1 MOL      0.374126
    115 O17         4.5890   -2.3860    0.2500 o         1 MOL     -0.302491
    116 C37         3.0330   -1.3750   -2.7460 c3        1 MOL      0.221319
    117 C38         1.8300   -1.5910   -3.5870 c3        1 MOL     -0.402549
    118 O18         2.7240   -0.2800   -2.0360 oh        1 MOL     -0.580354
    119 H53         1.5780   -2.0520   -0.8720 hn        1 MOL      0.305947
    120 H54         3.5440   -3.4440   -2.4720 h1        1 MOL      0.072105
    121 H55         3.8820   -1.2240   -3.4180 h1        1 MOL      0.043944
    122 H56         1.8160   -0.4030   -1.7450 ho        1 MOL      0.362953
    123 H57         1.9230   -0.8380   -4.3730 hc        1 MOL      0.113927
    124 H58         1.8830   -2.5600   -4.0670 hc        1 MOL      0.113927
    125 H59         0.9170   -1.5370   -2.9930 hc        1 MOL      0.113927
    126 N11         5.7350   -2.3230   -1.7180 n         1 MOL     -0.364117
    127 C39         7.1040   -2.0920   -1.1720 c3        1 MOL     -0.028611
    128 C40         7.2340   -0.7680   -0.3460 c         1 MOL      0.224762
    129 O19         7.9050   -0.7880    0.7210 o         1 MOL     -0.494696
    130 C41         8.1250   -2.0260   -2.2900 c3        1 MOL      0.315865
    131 C42         8.3860   -3.3310   -3.0430 c3        1 MOL     -0.337525
    132 O20         7.5360   -1.0840   -3.1830 oh        1 MOL     -0.680035
    133 H60         5.6710   -2.1890   -2.7150 hn        1 MOL      0.241628
    134 H61         7.4270   -2.9250   -0.5520 h1        1 MOL      0.134960
    135 H62         9.0000   -1.5220   -1.8940 h1        1 MOL      0.020596
    136 H63         8.0730   -1.0210   -3.9760 ho        1 MOL      0.411271
    137 H64         8.8680   -3.8900   -2.2380 hc        1 MOL      0.103314
    138 H65         7.4130   -3.7760   -3.2630 hc        1 MOL      0.103314
    139 H66         9.1300   -3.1220   -3.8090 hc        1 MOL      0.103314
    140 N12         6.4870    0.2860   -0.6600 n         1 MOL      0.168320
    141 C43         6.5290    1.5640   -0.0240 c3        1 MOL     -0.005467
    142 C44         5.7480    1.4830    1.2830 c         1 MOL      0.314510
    143 O21         6.1940    2.0670    2.2550 o         1 MOL     -0.523073
    144 C45         5.8750    2.5860   -1.0190 c3        1 MOL     -0.323835
    145 C46         6.5200    2.6560   -2.4030 c3        1 MOL      0.043080
    146 C47         8.0280    2.7640   -2.3060 c3        1 MOL     -0.157419
    147 C48         8.6210    3.9220   -1.4780 c3        1 MOL      0.087785
    148 N13        10.0690    3.8020   -1.3480 n4        1 MOL     -0.298132
    149 H67         6.1670    0.2870   -1.6290 hn        1 MOL      0.150976
    150 H68         7.5490    1.8320    0.2160 h1        1 MOL      0.072038
    151 H69         6.0020    3.5820   -0.5970 hc        1 MOL      0.090676
    152 H70         4.8170    2.3820   -1.1760 hc        1 MOL      0.090676
    153 H71         6.1730    3.4890   -2.9930 hc        1 MOL      0.037859
    154 H72         6.1290    1.8320   -2.9930 hc        1 MOL      0.037859
    155 H73         8.4430    2.7730   -3.3120 hc        1 MOL      0.038800
    156 H74         8.3120    1.8120   -1.8500 hc        1 MOL      0.038800
    157 H75         8.1810    3.8290   -0.4810 hx        1 MOL      0.085862
    158 H76         8.2540    4.8840   -1.8300 hx        1 MOL      0.085862
    159 H77        10.5810    4.6470   -1.1620 hn        1 MOL      0.301161
    160 H78        10.2980    3.0180   -0.7520 hn        1 MOL      0.301161
    161 H79        10.4850    3.5760   -2.2490 hn        1 MOL      0.301161
    162 N14         4.7610    0.6720    1.4170 n         1 MOL      0.088795
    163 C49         3.8540    0.4860    2.5410 c3        1 MOL     -0.249270
    164 C50         4.5390   -0.4880    3.6010 c         1 MOL      0.456267
    165 O22         4.4730   -0.3570    4.8370 o         1 MOL     -0.528456
    166 C51         2.5480   -0.0140    1.9670 c3        1 MOL      0.285707
    167 C52         1.9390    1.1190    1.1330 c3        1 MOL     -0.263091
    168 C53         0.6940    0.6240    0.3770 c         1 MOL      0.754483
    169 O23         0.6440   -0.4110   -0.3630 o         1 MOL     -0.658882
    170 O24        -0.3700    1.2240    0.3790 o         1 MOL     -0.658882
    171 H80         4.5410    0.1410    0.5850 hn        1 MOL     -0.054167
    172 H81         3.6520    1.3880    3.1190 h1        1 MOL      0.148014
    173 H82         1.8840   -0.3510    2.7660 hc        1 MOL      0.000987
    174 H83         2.7670   -0.8940    1.3580 hc        1 MOL      0.000987
    175 H84         2.5890    1.4110    0.3070 hc        1 MOL      0.051146
    176 H85         1.7100    1.9910    1.7390 hc        1 MOL      0.051146
    177 N15         5.2010   -1.4890    3.0580 n         1 MOL     -0.032810
    178 C54         6.1230   -2.3240    3.8120 c3        1 MOL     -0.390320
    179 H86         6.9100   -2.6850    3.1510 h1        1 MOL      0.135476
    180 H87         6.5660   -1.7390    4.6190 h1        1 MOL      0.135476
    181 H88         5.5840   -3.1730    4.2320 h1        1 MOL      0.135476
    182 H89         5.1730   -1.5320    2.0500 hn        1 MOL      0.098700
    183 Ca1        -1.9010    0.0610   -1.3860 Ca        1 MOL      1.715558
    184 O25        -1.4640   -1.5720   -3.6310 oh        1 MOL     -0.888593
    185 H90        -2.0270   -2.3130   -3.4240 ho        1 MOL      0.415122
    186 H91        -1.4970   -1.4910   -4.5840 ho        1 MOL      0.415122
    187 O26        -0.4800    1.7340   -2.8750 oh        1 MOL     -0.888593
    188 H92         0.0560    1.7970   -3.6680 ho        1 MOL      0.415122
    189 H93        -1.1140    2.4510   -2.9570 ho        1 MOL      0.415122
@<TRIPOS>BOND
     1    1    2 1   
     2    1    4 1   
     3    1    5 1   
     4    1    6 1   
     5    2    3 2   
     6    2    7 1   
     7    7    8 1   
     8    7   15 1   
     9    8    9 1   
    10    8   11 1   
    11    8   16 1   
    12    9   10 2   
    13    9   19 1   
    14   11   12 1   
    15   11   17 1   
    16   11   18 1   
    17   12   13 1   
    18   12   14 1   
    19   19   20 1   
    20   19   28 1   
    21   20   21 1   
    22   20   23 1   
    23   20   29 1   
    24   21   22 2   
    25   21   41 1   
    26   23   24 1   
    27   23   30 1   
    28   23   31 1   
    29   24   25 1   
    30   24   32 1   
    31   24   33 1   
    32   25   26 1   
    33   25   34 1   
    34   25   35 1   
    35   26   27 1   
    36   26   36 1   
    37   26   37 1   
    38   27   38 1   
    39   27   39 1   
    40   27   40 1   
    41   41   42 1   
    42   41   49 1   
    43   42   43 1   
    44   42   45 1   
    45   42   50 1   
    46   43   44 2   
    47   43   53 1   
    48   45   46 1   
    49   45   51 1   
    50   45   52 1   
    51   46   47 1   
    52   46   48 1   
    53   53   54 1   
    54   53   57 1   
    55   54   55 1   
    56   54   58 1   
    57   54   59 1   
    58   55   56 2   
    59   55   60 1   
    60   60   61 1   
    61   60   68 1   
    62   61   62 1   
    63   61   64 1   
    64   61   69 1   
    65   62   63 2   
    66   62   72 1   
    67   64   65 1   
    68   64   70 1   
    69   64   71 1   
    70   65   66 1   
    71   65   67 1   
    72   72   73 1   
    73   72   76 1   
    74   73   74 1   
    75   73   77 1   
    76   73   78 1   
    77   74   75 2   
    78   74   79 1   
    79   79   80 1   
    80   79   86 1   
    81   80   81 1   
    82   80   83 1   
    83   80   87 1   
    84   81   82 2   
    85   81   93 1   
    86   83   84 1   
    87   83   85 1   
    88   83   88 1   
    89   84   90 1   
    90   84   91 1   
    91   84   92 1   
    92   85   89 1   
    93   93   94 1   
    94   93  101 1   
    95   94   95 1   
    96   94   97 1   
    97   94  102 1   
    98   95   96 2   
    99   95  112 1   
   100   97   98 1   
   101   97   99 1   
   102   97  103 1   
   103   98  100 1   
   104   98  104 1   
   105   98  105 1   
   106   99  106 1   
   107   99  107 1   
   108   99  108 1   
   109  100  109 1   
   110  100  110 1   
   111  100  111 1   
   112  112  113 1   
   113  112  119 1   
   114  113  114 1   
   115  113  116 1   
   116  113  120 1   
   117  114  115 2   
   118  114  126 1   
   119  116  117 1   
   120  116  118 1   
   121  116  121 1   
   122  117  123 1   
   123  117  124 1   
   124  117  125 1   
   125  118  122 1   
   126  126  127 1   
   127  126  133 1   
   128  127  128 1   
   129  127  130 1   
   130  127  134 1   
   131  128  129 2   
   132  128  140 1   
   133  130  131 1   
   134  130  132 1   
   135  130  135 1   
   136  131  137 1   
   137  131  138 1   
   138  131  139 1   
   139  132  136 1   
   140  140  141 1   
   141  140  149 1   
   142  141  142 1   
   143  141  144 1   
   144  141  150 1   
   145  142  143 2   
   146  142  162 1   
   147  144  145 1   
   148  144  151 1   
   149  144  152 1   
   150  145  146 1   
   151  145  153 1   
   152  145  154 1   
   153  146  147 1   
   154  146  155 1   
   155  146  156 1   
   156  147  148 1   
   157  147  157 1   
   158  147  158 1   
   159  148  159 1   
   160  148  160 1   
   161  148  161 1   
   162  162  163 1   
   163  162  171 1   
   164  163  164 1   
   165  163  166 1   
   166  163  172 1   
   167  164  165 2   
   168  164  177 1   
   169  166  167 1   
   170  166  173 1   
   171  166  174 1   
   172  167  168 1   
   173  167  175 1   
   174  167  176 1   
   175  168  169 1   
   176  168  170 1   
   177  177  178 1   
   178  177  182 1   
   179  178  179 1   
   180  178  180 1   
   181  178  181 1   
   182  184  185 1   
   183  184  186 1   
   184  187  188 1   
   185  187  189 1   
@<TRIPOS>SUBSTRUCTURE
     1 MOL         1 TEMP              0 ****  ****    0 ROOT
