@<TRIPOS>MOLECULE
MOL
  175   173     1     0     0
SMALL
resp


@<TRIPOS>ATOM
      1 C1         -1.0770    3.8410    5.9010 c3        1 MOL     -0.328362
      2 C2         -1.2990    3.4390    4.3780 c         1 MOL      0.801281
      3 O1         -0.4640    3.7630    3.5640 o         1 MOL     -0.593873
      4 H1         -1.7670    4.6420    6.1690 hc        1 MOL      0.074435
      5 H2         -1.2600    2.9750    6.5370 hc        1 MOL      0.074435
      6 H3         -0.0520    4.1850    6.0400 hc        1 MOL      0.074435
      7 N1         -2.4100    2.7490    3.9740 n         1 MOL     -0.746767
      8 C3         -2.5670    2.3370    2.6050 c3        1 MOL      0.306505
      9 C4         -2.9430    3.5410    1.6660 c         1 MOL      0.511751
     10 O2         -3.9290    4.2210    1.8050 o         1 MOL     -0.598681
     11 C5         -3.6460    1.2390    2.6170 c3        1 MOL     -0.012482
     12 C6         -4.1810    0.7440    1.2140 c         1 MOL      0.587121
     13 O3         -5.0650   -0.0560    1.3280 o         1 MOL     -0.608468
     14 O4         -3.6690    1.1660    0.1100 o         1 MOL     -0.608468
     15 H4         -3.0870    2.4090    4.6360 hn        1 MOL      0.338841
     16 H5         -1.6710    1.8220    2.2680 h1        1 MOL     -0.193494
     17 H6         -4.4710    1.5030    3.2820 hc        1 MOL     -0.008966
     18 H7         -3.2680    0.3100    3.0420 hc        1 MOL     -0.008966
     19 N2         -2.1610    3.6560    0.6110 n         1 MOL     -0.249778
     20 C7         -2.0380    4.8650   -0.2160 c3        1 MOL      0.160197
     21 C8         -3.0430    4.8870   -1.3790 c         1 MOL      0.471647
     22 O5         -3.0410    5.7660   -2.2420 o         1 MOL     -0.569059
     23 C9         -0.6120    5.0090   -0.6900 c3        1 MOL     -0.315586
     24 H8         -1.5470    2.8970    0.3950 hn        1 MOL      0.272953
     25 H9         -2.2590    5.7010    0.4400 h1        1 MOL      0.043648
     26 H10        -0.6200    6.0310   -1.0770 hc        1 MOL      0.093427
     27 H11        -0.0100    4.9440    0.2180 hc        1 MOL      0.093427
     28 H12        -0.4520    4.2520   -1.4540 hc        1 MOL      0.093427
     29 N3         -3.9090    3.9060   -1.5320 n         1 MOL     -0.295886
     30 C10        -4.8150    3.5520   -2.6850 c3        1 MOL      0.183165
     31 C11        -6.0370    2.7020   -2.2730 c         1 MOL      0.358521
     32 O6         -7.0900    2.7440   -2.9560 o         1 MOL     -0.536809
     33 C12        -4.1580    2.8010   -3.8750 c3        1 MOL     -0.391755
     34 C13        -3.3770    1.6150   -3.3820 c         1 MOL      0.763321
     35 O7         -3.9390    0.4970   -3.1840 o         1 MOL     -0.692884
     36 O8         -2.2310    1.7500   -2.8730 o         1 MOL     -0.692884
     37 H13        -3.7850    3.1680   -0.8530 hn        1 MOL     -0.073332
     38 H14        -5.2690    4.5070   -2.9430 h1        1 MOL      0.080737
     39 H15        -3.4790    3.5660   -4.2320 hc        1 MOL      0.100514
     40 H16        -4.8540    2.5370   -4.6730 hc        1 MOL      0.100514
     41 N4         -6.0180    2.2600   -1.0220 n         1 MOL     -0.181038
     42 C14        -7.1590    1.7330   -0.2710 c3        1 MOL     -0.171864
     43 C15        -7.5750    0.3400   -0.6370 c         1 MOL      0.559950
     44 O9         -8.7400   -0.0320   -0.4510 o         1 MOL     -0.602152
     45 H17        -5.1360    2.2990   -0.5260 hn        1 MOL      0.302361
     46 H18        -7.9830    2.4340   -0.3440 h1        1 MOL      0.095700
     47 H19        -6.8700    1.6970    0.7820 h1        1 MOL      0.095700
     48 N5         -6.6910   -0.5270   -1.1950 n         1 MOL     -0.112122
     49 C16        -6.9670   -1.9760   -1.3550 c3        1 MOL     -0.287157
     50 C17        -6.7470   -2.9330   -0.1340 c         1 MOL      0.536162
     51 O10        -6.9920   -4.1300   -0.4260 o         1 MOL     -0.576068
     52 C18        -6.0840   -2.3870   -2.5600 c3        1 MOL     -0.057362
     53 C19        -4.6270   -2.6360   -2.2030 c         1 MOL      0.543399
     54 N6         -3.8680   -3.1650   -3.1120 n         1 MOL     -0.698134
     55 O11        -4.0540   -2.1670   -1.2610 o         1 MOL     -0.516085
     56 H20        -5.7300   -0.2120   -1.2280 hn        1 MOL      0.005299
     57 H21        -8.0180   -2.0090   -1.6500 h1        1 MOL      0.174124
     58 H22        -6.0260   -1.6210   -3.3390 hc        1 MOL      0.072597
     59 H23        -6.4420   -3.2730   -3.0850 hc        1 MOL      0.072597
     60 H24        -4.2660   -3.7450   -3.8270 hn        1 MOL      0.319170
     61 H25        -2.8810   -3.2330   -2.8990 hn        1 MOL      0.319170
     62 N7         -6.4660   -2.4580    1.0530 n         1 MOL     -0.212405
     63 C20        -6.4220   -3.2770    2.2640 c3        1 MOL     -0.174875
     64 C21        -5.0110   -3.6990    2.6160 c         1 MOL      0.572535
     65 O12        -4.7320   -4.3130    3.6220 o         1 MOL     -0.580627
     66 H26        -6.3430   -1.4780    1.2750 hn        1 MOL      0.277787
     67 H27        -6.9440   -4.2200    2.1180 h1        1 MOL      0.098214
     68 H28        -6.8690   -2.7070    3.0850 h1        1 MOL      0.098214
     69 N8         -4.0570   -3.4310    1.7280 n         1 MOL     -0.278962
     70 C22        -2.6380   -3.6900    1.9880 c3        1 MOL     -0.055516
     71 C23        -1.8140   -2.4700    1.7560 c         1 MOL      0.547352
     72 O13        -2.2350   -1.5400    1.0500 o         1 MOL     -0.427207
     73 C24        -2.0730   -4.8620    1.2430 c3        1 MOL      0.367155
     74 C25        -2.6880   -6.1570    1.7220 c3        1 MOL     -0.491023
     75 O14        -2.3280   -4.7140   -0.1250 oh        1 MOL     -0.679114
     76 H29        -4.2310   -2.9570    0.8550 hn        1 MOL      0.149394
     77 H30        -2.5050   -3.9310    3.0420 h1        1 MOL      0.104613
     78 H31        -0.9890   -4.8240    1.2790 h1        1 MOL      0.075699
     79 H32        -3.1760   -5.0950   -0.3720 ho        1 MOL      0.428279
     80 H33        -3.7610   -6.2150    1.5710 hc        1 MOL      0.129444
     81 H34        -2.3540   -6.8650    0.9610 hc        1 MOL      0.129444
     82 H35        -2.3790   -6.3990    2.7440 hc        1 MOL      0.129444
     83 N9         -0.6160   -2.4470    2.4160 n         1 MOL     -0.466720
     84 C26         0.5220   -1.7100    1.9600 c3        1 MOL     -0.115846
     85 C27         1.4390   -2.4830    1.1020 c         1 MOL      0.637768
     86 O15         1.7730   -3.5980    1.4410 o         1 MOL     -0.601656
     87 C28         1.1550   -0.9020    3.1340 c3        1 MOL      0.282473
     88 C29         1.6770   -1.7580    4.3060 c3        1 MOL     -0.406877
     89 C30         0.2680    0.2340    3.5470 c3        1 MOL     -0.373764
     90 C31         2.2500   -0.9650    5.4960 c3        1 MOL     -0.164308
     91 H36        -0.3570   -3.2420    2.9810 hn        1 MOL      0.238981
     92 H37         0.1980   -0.8720    1.3460 h1        1 MOL     -0.059817
     93 H38         2.0660   -0.4350    2.7520 hc        1 MOL     -0.009007
     94 H39         2.4310   -2.4380    3.9210 hc        1 MOL      0.140068
     95 H40         0.8830   -2.3790    4.7140 hc        1 MOL      0.140068
     96 H41        -0.7450   -0.0280    3.8690 hc        1 MOL      0.123755
     97 H42         0.7470    0.8780    4.2820 hc        1 MOL      0.123755
     98 H43         0.0960    0.9120    2.7070 hc        1 MOL      0.123755
     99 H44         2.5640   -1.5380    6.3700 hc        1 MOL      0.055112
    100 H45         3.0210   -0.2850    5.1310 hc        1 MOL      0.055112
    101 H46         1.4650   -0.4730    6.0630 hc        1 MOL      0.055112
    102 N10         1.8910   -2.0220   -0.1010 n         1 MOL     -0.421074
    103 C32         3.0800   -2.3830   -0.9740 c3        1 MOL      0.153846
    104 C33         4.3200   -1.5030   -0.6100 c         1 MOL      0.419776
    105 O16         4.0450   -0.4150    0.0110 o         1 MOL     -0.463225
    106 C34         2.7060   -2.1680   -2.4660 c3        1 MOL     -0.113741
    107 C35         3.6080   -2.8120   -3.4920 c         1 MOL      0.627270
    108 O17         3.2030   -2.9630   -4.6290 o         1 MOL     -0.682491
    109 O18         4.6290   -3.4520   -3.1580 o         1 MOL     -0.682491
    110 H47         1.4800   -1.1350   -0.3410 hn        1 MOL      0.283281
    111 H48         3.3350   -3.4150   -0.7210 h1        1 MOL      0.049997
    112 H49         2.5820   -1.1100   -2.6940 hc        1 MOL      0.025195
    113 H50         1.7280   -2.5580   -2.7530 hc        1 MOL      0.025195
    114 N11         5.5120   -1.8080   -1.0910 n         1 MOL     -0.483784
    115 C36         6.8170   -1.3050   -0.5410 c3        1 MOL      0.411106
    116 C37         7.0930    0.2650   -0.7160 c         1 MOL      0.315042
    117 O19         7.6350    0.8160    0.1660 o         1 MOL     -0.498556
    118 C38         7.9440   -2.1660   -1.1130 c3        1 MOL     -0.283007
    119 C39         9.3190   -1.8660   -0.5980 ca        1 MOL      0.215862
    120 C40         9.5180   -2.1870    0.7920 ca        1 MOL     -0.246012
    121 C41        10.3770   -1.4700   -1.4450 ca        1 MOL     -0.246012
    122 C42        10.7890   -1.9990    1.4370 ca        1 MOL     -0.098219
    123 C43        11.6430   -1.3290   -0.7850 ca        1 MOL     -0.098219
    124 C44        11.8610   -1.4610    0.6380 ca        1 MOL     -0.139697
    125 H51         5.5700   -2.6010   -1.7270 hn        1 MOL      0.205813
    126 H52         6.7560   -1.5570    0.5170 h1        1 MOL      0.004133
    127 H53         7.9190   -1.9840   -2.1850 hc        1 MOL      0.097526
    128 H54         7.8240   -3.2500   -1.0140 hc        1 MOL      0.097526
    129 H55         8.7070   -2.5860    1.3910 ha        1 MOL      0.146996
    130 H56        10.2770   -1.1920   -2.4790 ha        1 MOL      0.146996
    131 H57        11.0720   -2.3560    2.4150 ha        1 MOL      0.104544
    132 H58        12.4230   -0.8500   -1.3600 ha        1 MOL      0.104544
    133 H59        12.8190   -1.2300    1.0820 ha        1 MOL      0.105980
    134 N12         6.5190    1.0100   -1.7080 n         1 MOL     -0.103063
    135 C45         6.3600    2.4780   -1.6440 c3        1 MOL      0.161883
    136 C46         5.6490    3.0790   -0.4390 c         1 MOL      0.272718
    137 O20         6.0010    4.0620    0.1330 o         1 MOL     -0.481437
    138 C47         5.7350    2.8940   -2.9700 c3        1 MOL     -0.027585
    139 C48         6.1220    1.7670   -3.8960 c3        1 MOL     -0.040811
    140 C49         6.0660    0.5360   -2.9980 c3        1 MOL     -0.077208
    141 H60         7.3400    2.9520   -1.5920 h1        1 MOL      0.002865
    142 H61         4.6580    2.9760   -2.8180 hc        1 MOL      0.021451
    143 H62         6.1580    3.8100   -3.3590 hc        1 MOL      0.021451
    144 H63         5.3850    1.6660   -4.6910 hc        1 MOL      0.030984
    145 H64         7.0930    1.9490   -4.3600 hc        1 MOL      0.030984
    146 H65         5.0630    0.1700   -2.7970 h1        1 MOL      0.052896
    147 H66         6.7760   -0.2420   -3.2680 h1        1 MOL      0.052896
    148 N13         4.4650    2.4870   -0.1110 n         1 MOL     -0.196968
    149 C50         3.5650    2.9440    0.9210 c3        1 MOL     -0.017449
    150 C51         4.1730    2.6400    2.3360 c         1 MOL      0.425183
    151 O21         4.0570    3.4500    3.2670 o         1 MOL     -0.577763
    152 C52         2.1710    2.2140    0.6830 c3        1 MOL     -0.013826
    153 C53         1.5590    2.2310   -0.7700 c3        1 MOL     -0.087789
    154 C54         0.3600    1.2730   -0.8530 c         1 MOL      0.679818
    155 O22         0.3640    0.3120   -1.6170 o         1 MOL     -0.693641
    156 O23        -0.6480    1.4920   -0.1950 o         1 MOL     -0.693641
    157 H67         4.0930    1.6500   -0.5440 hn        1 MOL      0.257190
    158 H68         3.3940    4.0220    0.9320 h1        1 MOL      0.070240
    159 H69         1.4450    2.5730    1.4210 hc        1 MOL      0.039199
    160 H70         2.2680    1.1580    0.9240 hc        1 MOL      0.039199
    161 H71         2.3630    2.1160   -1.5010 hc        1 MOL      0.002102
    162 H72         1.2850    3.2840   -0.8280 hc        1 MOL      0.002102
    163 N14         4.9130    1.5780    2.4250 n         1 MOL      0.132602
    164 C55         5.7450    1.2890    3.5240 c3        1 MOL     -0.425894
    165 H73         5.3060    1.7030    4.4310 h1        1 MOL      0.125779
    166 H74         5.8460    0.2090    3.6300 h1        1 MOL      0.125779
    167 H75         6.7280    1.7320    3.3620 h1        1 MOL      0.125779
    168 H76         4.8770    0.9100    1.6680 hn        1 MOL      0.049413
    169 Ca1        -2.1870   -0.2130   -1.2600 Ca        1 MOL      1.730841
    170 O24        -0.9490   -2.6240   -1.2320 oh        1 MOL     -0.813603
    171 H77        -1.3570   -3.4010   -0.8340 ho        1 MOL      0.397242
    172 H78        -0.7310   -2.8950   -2.1250 ho        1 MOL      0.397242
    173 O25        -1.6740   -1.3370   -3.8680 oh        1 MOL     -0.813603
    174 H79        -1.5400   -2.2640   -4.0780 ho        1 MOL      0.397242
    175 H80        -1.6910   -0.9020   -4.7100 ho        1 MOL      0.397242
@<TRIPOS>BOND
     1    1    2 1   
     2    1    4 1   
     3    1    5 1   
     4    1    6 1   
     5    2    3 2   
     6    2    7 1   
     7    7    8 1   
     8    7   15 1   
     9    8    9 1   
    10    8   11 1   
    11    8   16 1   
    12    9   10 2   
    13    9   19 1   
    14   11   12 1   
    15   11   17 1   
    16   11   18 1   
    17   12   13 1   
    18   12   14 1   
    19   19   20 1   
    20   19   24 1   
    21   20   21 1   
    22   20   23 1   
    23   20   25 1   
    24   21   22 2   
    25   21   29 1   
    26   23   26 1   
    27   23   27 1   
    28   23   28 1   
    29   29   30 1   
    30   29   37 1   
    31   30   31 1   
    32   30   33 1   
    33   30   38 1   
    34   31   32 2   
    35   31   41 1   
    36   33   34 1   
    37   33   39 1   
    38   33   40 1   
    39   34   35 1   
    40   34   36 1   
    41   41   42 1   
    42   41   45 1   
    43   42   43 1   
    44   42   46 1   
    45   42   47 1   
    46   43   44 2   
    47   43   48 1   
    48   48   49 1   
    49   48   56 1   
    50   49   50 1   
    51   49   52 1   
    52   49   57 1   
    53   50   51 2   
    54   50   62 1   
    55   52   53 1   
    56   52   58 1   
    57   52   59 1   
    58   53   54 1   
    59   53   55 2   
    60   54   60 1   
    61   54   61 1   
    62   62   63 1   
    63   62   66 1   
    64   63   64 1   
    65   63   67 1   
    66   63   68 1   
    67   64   65 2   
    68   64   69 1   
    69   69   70 1   
    70   69   76 1   
    71   70   71 1   
    72   70   73 1   
    73   70   77 1   
    74   71   72 2   
    75   71   83 1   
    76   73   74 1   
    77   73   75 1   
    78   73   78 1   
    79   74   80 1   
    80   74   81 1   
    81   74   82 1   
    82   75   79 1   
    83   83   84 1   
    84   83   91 1   
    85   84   85 1   
    86   84   87 1   
    87   84   92 1   
    88   85   86 2   
    89   85  102 1   
    90   87   88 1   
    91   87   89 1   
    92   87   93 1   
    93   88   90 1   
    94   88   94 1   
    95   88   95 1   
    96   89   96 1   
    97   89   97 1   
    98   89   98 1   
    99   90   99 1   
   100   90  100 1   
   101   90  101 1   
   102  102  103 1   
   103  102  110 1   
   104  103  104 1   
   105  103  106 1   
   106  103  111 1   
   107  104  105 2   
   108  104  114 1   
   109  106  107 1   
   110  106  112 1   
   111  106  113 1   
   112  107  108 1   
   113  107  109 1   
   114  114  115 1   
   115  114  125 1   
   116  115  116 1   
   117  115  118 1   
   118  115  126 1   
   119  116  117 2   
   120  116  134 1   
   121  118  119 1   
   122  118  127 1   
   123  118  128 1   
   124  119  120 ar  
   125  119  121 ar  
   126  120  122 ar  
   127  120  129 1   
   128  121  123 ar  
   129  121  130 1   
   130  122  124 ar  
   131  122  131 1   
   132  123  124 ar  
   133  123  132 1   
   134  124  133 1   
   135  134  135 1   
   136  134  140 1   
   137  135  136 1   
   138  135  138 1   
   139  135  141 1   
   140  136  137 2   
   141  136  148 1   
   142  138  139 1   
   143  138  142 1   
   144  138  143 1   
   145  139  140 1   
   146  139  144 1   
   147  139  145 1   
   148  140  146 1   
   149  140  147 1   
   150  148  149 1   
   151  148  157 1   
   152  149  150 1   
   153  149  152 1   
   154  149  158 1   
   155  150  151 2   
   156  150  163 1   
   157  152  153 1   
   158  152  159 1   
   159  152  160 1   
   160  153  154 1   
   161  153  161 1   
   162  153  162 1   
   163  154  155 1   
   164  154  156 1   
   165  163  164 1   
   166  163  168 1   
   167  164  165 1   
   168  164  166 1   
   169  164  167 1   
   170  170  171 1   
   171  170  172 1   
   172  173  174 1   
   173  173  175 1   
@<TRIPOS>SUBSTRUCTURE
     1 MOL         1 TEMP              0 ****  ****    0 ROOT
