@<TRIPOS>MOLECULE
MOL
  186   183     1     0     0
SMALL
resp


@<TRIPOS>ATOM
      1 C1          1.1740   -1.6030    6.4970 c3        1 MOL     -0.211490
      2 C2          1.2530   -1.6450    4.9860 c         1 MOL      0.788101
      3 O1          0.2640   -1.8880    4.2660 o         1 MOL     -0.627536
      4 H1          1.1380   -0.5650    6.8290 hc        1 MOL      0.041058
      5 H2          0.2750   -2.1220    6.8280 hc        1 MOL      0.041058
      6 H3          2.0530   -2.0890    6.9210 hc        1 MOL      0.041058
      7 N1          2.4260   -1.4010    4.5000 n         1 MOL     -0.738812
      8 C3          2.8760   -1.4880    3.0880 c3        1 MOL      0.382521
      9 C4          3.0820   -2.9500    2.7200 c         1 MOL      0.511929
     10 O2          3.8570   -3.6130    3.3580 o         1 MOL     -0.580460
     11 C5          4.2260   -0.7030    2.9170 c3        1 MOL     -0.469750
     12 C6          4.7470   -0.8720    1.5050 c         1 MOL      0.815084
     13 O3          3.9890   -1.1710    0.5590 o         1 MOL     -0.655550
     14 O4          5.9580   -0.5540    1.2820 o         1 MOL     -0.655550
     15 H4          3.0950   -1.0490    5.1700 hn        1 MOL      0.340847
     16 H5          2.1510   -0.9690    2.4680 h1        1 MOL     -0.028408
     17 H6          4.9070   -1.0420    3.6970 hc        1 MOL      0.112221
     18 H7          4.0610    0.3330    3.2200 hc        1 MOL      0.112221
     19 N2          2.4250   -3.4040    1.6850 n         1 MOL     -0.230394
     20 C7          2.2740   -4.8250    1.2810 c3        1 MOL     -0.091495
     21 C8          3.3020   -5.1190    0.1920 c         1 MOL      0.544133
     22 O5          3.9850   -6.1770    0.3100 o         1 MOL     -0.575777
     23 C9          0.7430   -5.0920    0.9010 c3        1 MOL      0.101336
     24 C10        -0.0240   -5.0660    2.2180 c3        1 MOL      0.375973
     25 C11         0.5910   -6.5300    0.3100 c3        1 MOL     -0.250398
     26 C12        -1.4760   -5.5000    2.3780 c3        1 MOL     -0.050642
     27 H8          1.8690   -2.7130    1.1910 hn        1 MOL      0.114957
     28 H9          2.5790   -5.4700    2.1170 h1        1 MOL      0.073392
     29 H10         0.4580   -4.3120    0.2020 hc        1 MOL      0.040007
     30 H11        -0.0070   -4.0630    2.6560 hc        1 MOL     -0.105833
     31 H12         0.5010   -5.6610    2.9650 hc        1 MOL     -0.105833
     32 H13         1.3350   -6.6900   -0.4620 hc        1 MOL      0.043027
     33 H14         0.6720   -7.3030    1.0880 hc        1 MOL      0.043027
     34 H15        -0.3850   -6.6330   -0.1660 hc        1 MOL      0.043027
     35 H16        -2.1590   -4.9420    1.7420 hc        1 MOL     -0.008752
     36 H17        -1.6590   -6.5310    2.0920 hc        1 MOL     -0.008752
     37 H18        -1.7140   -5.4420    3.4460 hc        1 MOL     -0.008752
     38 N3          3.4400   -4.2150   -0.8160 n         1 MOL     -0.402794
     39 C13         4.1830   -4.5560   -1.9970 c3        1 MOL      0.228111
     40 C14         5.6220   -4.0950   -1.8650 c         1 MOL      0.402184
     41 O6          6.4810   -4.8450   -2.3390 o         1 MOL     -0.581289
     42 C15         3.5550   -4.0490   -3.2650 c3        1 MOL     -0.386376
     43 C16         3.1150   -2.6230   -3.3580 c         1 MOL      0.775420
     44 O7          3.2280   -1.7710   -2.4380 o         1 MOL     -0.712480
     45 O8          2.3240   -2.3180   -4.2900 o         1 MOL     -0.712480
     46 H19         3.0490   -3.2970   -0.6610 hn        1 MOL      0.258728
     47 H20         4.3190   -5.6290   -2.1660 h1        1 MOL      0.038053
     48 H21         2.7200   -4.7520   -3.2680 hc        1 MOL      0.101447
     49 H22         4.2100   -4.2320   -4.1150 hc        1 MOL      0.101447
     50 N4          5.9020   -2.9830   -1.1750 n         1 MOL     -0.013081
     51 C17         7.2900   -2.5110   -1.0180 c3        1 MOL     -0.117414
     52 C18         7.7060   -1.2400   -1.8410 c         1 MOL      0.584389
     53 O9          8.5630   -1.2310   -2.7450 o         1 MOL     -0.578782
     54 H23         5.1880   -2.4360   -0.7210 hn        1 MOL      0.019266
     55 H24         8.0520   -3.2810   -1.1080 h1        1 MOL      0.053368
     56 H25         7.2130   -2.2120    0.0350 h1        1 MOL      0.053368
     57 N5          7.0500   -0.1320   -1.4720 n         1 MOL     -0.506713
     58 C19         7.2590    1.2450   -2.0090 c3        1 MOL      0.289412
     59 C20         7.3600    2.2830   -0.9030 c         1 MOL      0.403735
     60 O10         7.6200    3.4620   -1.2650 o         1 MOL     -0.564027
     61 C21         6.1810    1.6200   -2.9780 c3        1 MOL     -0.376929
     62 C22         4.7920    1.5660   -2.3950 c         1 MOL      0.902428
     63 O11         3.7830    1.3860   -3.1180 o         1 MOL     -0.792461
     64 O12         4.5410    1.6200   -1.1750 o         1 MOL     -0.792461
     65 H26         6.3860   -0.2590   -0.7210 hn        1 MOL      0.193205
     66 H27         8.2330    1.2530   -2.5040 h1        1 MOL      0.037260
     67 H28         6.2420    0.9230   -3.8190 hc        1 MOL      0.095150
     68 H29         6.4050    2.6250   -3.3470 hc        1 MOL      0.095150
     69 N6          7.2540    1.8770    0.3590 n         1 MOL     -0.341325
     70 C23         7.3320    2.7240    1.5370 c3        1 MOL      0.010644
     71 C24         6.0950    3.5660    1.7180 c         1 MOL      0.445568
     72 O13         6.1280    4.4710    2.5320 o         1 MOL     -0.594743
     73 H30         6.9640    0.9150    0.5160 hn        1 MOL      0.245690
     74 H31         8.1870    3.4000    1.5790 h1        1 MOL      0.069704
     75 H32         7.4720    2.1190    2.4300 h1        1 MOL      0.069704
     76 N7          4.9490    3.3500    1.0810 n         1 MOL     -0.273202
     77 C25         3.6340    4.0150    1.1830 c3        1 MOL      0.173475
     78 C26         2.4890    3.0040    1.3360 c         1 MOL      0.483571
     79 O14         2.6330    1.8590    0.9930 o         1 MOL     -0.636164
     80 C27         3.3720    4.9340   -0.0840 c3        1 MOL      0.041470
     81 C28         4.5670    5.9270   -0.2390 c3        1 MOL     -0.284445
     82 C29         4.3500    6.9530   -1.3150 c         1 MOL      0.742375
     83 N8          4.0430    6.6730   -2.5590 n         1 MOL     -0.840313
     84 O15         4.3480    8.1290   -1.0850 o         1 MOL     -0.613924
     85 H33         5.0030    2.5730    0.4470 hn        1 MOL      0.245790
     86 H34         3.5870    4.7110    2.0180 h1        1 MOL      0.016487
     87 H35         2.4610    5.5130    0.0050 hc        1 MOL      0.020149
     88 H36         3.2930    4.2380   -0.9130 hc        1 MOL      0.020149
     89 H37         5.4250    5.2880   -0.4430 hc        1 MOL      0.089465
     90 H38         4.6900    6.4180    0.7290 hc        1 MOL      0.089465
     91 H39         4.0430    5.7760   -3.0310 hn        1 MOL      0.360190
     92 H40         3.7710    7.4460   -3.1580 hn        1 MOL      0.360190
     93 N9          1.3240    3.4820    1.7160 n         1 MOL     -0.449913
     94 C30        -0.0060    2.7970    1.7160 c3        1 MOL      0.053718
     95 C31        -0.9960    3.4170    0.6970 c         1 MOL      0.349849
     96 O16        -1.2720    4.5790    0.7120 o         1 MOL     -0.543337
     97 C32        -0.4520    2.8200    3.2160 c3        1 MOL      0.349278
     98 C33        -1.8180    2.2150    3.4570 c3        1 MOL     -0.350590
     99 C34         0.4760    2.0970    4.1430 c3        1 MOL     -0.350590
    100 H41         1.2410    4.4870    1.8130 hn        1 MOL      0.256916
    101 H42         0.2030    1.7550    1.4950 h1        1 MOL      0.105186
    102 H43        -0.4030    3.8320    3.6140 hc        1 MOL     -0.053704
    103 H44        -2.4970    2.8920    2.9360 hc        1 MOL      0.075703
    104 H45        -1.8010    1.2360    2.9610 hc        1 MOL      0.075703
    105 H46        -2.0920    2.1670    4.5030 hc        1 MOL      0.075703
    106 H47         0.6410    1.0670    3.8160 hc        1 MOL      0.075703
    107 H48         1.4260    2.6140    4.1830 hc        1 MOL      0.075703
    108 H49         0.0610    1.9610    5.1460 hc        1 MOL      0.075703
    109 N10        -1.6700    2.5550   -0.0650 n         1 MOL     -0.048736
    110 C35        -2.8510    2.8190   -0.8600 c3        1 MOL      0.016422
    111 C36        -4.1660    2.2350   -0.1890 c         1 MOL      0.315927
    112 O17        -4.0730    1.2380    0.5580 o         1 MOL     -0.260604
    113 C37        -2.6280    2.3770   -2.3190 c3        1 MOL     -0.558663
    114 C38        -3.2310    1.1270   -2.7740 c         1 MOL      0.693744
    115 N11        -2.4550    0.1240   -2.6810 n         1 MOL     -0.726047
    116 O18        -4.3700    1.0740   -3.2540 o         1 MOL     -0.596961
    117 H50        -1.5200    1.5550    0.0250 hn        1 MOL      0.182743
    118 H51        -3.0700    3.8900   -0.8600 h1        1 MOL      0.062949
    119 H52        -1.5600    2.3820   -2.5320 hc        1 MOL      0.176717
    120 H53        -3.0380    3.1230   -3.0040 hc        1 MOL      0.176717
    121 H54        -1.6000    0.1420   -2.1500 hn        1 MOL      0.382400
    122 H55        -2.9140   -0.7360   -2.9500 hn        1 MOL      0.382400
    123 N12        -5.3660    2.6260   -0.6620 n         1 MOL     -0.414299
    124 C39        -6.6200    2.0640   -0.1390 c3        1 MOL      0.093784
    125 C40        -6.7970    0.5470   -0.0720 c         1 MOL      0.642567
    126 O19        -7.1200    0.0190    0.9630 o         1 MOL     -0.590705
    127 C41        -7.7740    2.7700   -0.8540 c3        1 MOL     -0.371563
    128 C42        -9.1610    2.2960   -0.3570 ca        1 MOL      0.315489
    129 C43        -9.7740    2.9810    0.6870 ca        1 MOL     -0.384595
    130 C44        -9.8810    1.2990   -1.0550 ca        1 MOL     -0.384595
    131 C45       -11.0110    2.5180    1.2000 ca        1 MOL     -0.028533
    132 C46       -11.1550    0.9280   -0.6630 ca        1 MOL     -0.028533
    133 C47       -11.7250    1.5430    0.4920 ca        1 MOL      0.109595
    134 O20       -12.8690    1.1140    1.1320 oh        1 MOL     -0.504450
    135 H56        -5.3830    3.4200   -1.2870 hn        1 MOL      0.300183
    136 H57        -6.6720    2.2970    0.9330 h1        1 MOL      0.054349
    137 H58        -7.6010    2.4590   -1.8870 hc        1 MOL      0.112198
    138 H59        -7.6380    3.8510   -0.7480 hc        1 MOL      0.112198
    139 H60        -9.1990    3.7260    1.2140 ha        1 MOL      0.174948
    140 H61        -9.5010    0.8840   -1.9780 ha        1 MOL      0.174948
    141 H62       -11.4330    2.8840    2.1190 ha        1 MOL      0.105785
    142 H63       -11.6800    0.1960   -1.2420 ha        1 MOL      0.105785
    143 H64       -13.4360    0.5910    0.5680 ho        1 MOL      0.387914
    144 N13        -6.3950   -0.2640   -1.0550 n         1 MOL     -0.174876
    145 C48        -6.5060   -1.7340   -1.0240 c3        1 MOL     -0.084317
    146 C49        -5.4770   -2.3700   -0.0820 c         1 MOL      0.313222
    147 O21        -5.4460   -3.5570    0.0840 o         1 MOL     -0.517588
    148 C50        -6.2240   -2.1660   -2.4890 c3        1 MOL      0.109225
    149 C51        -7.5090   -2.0170   -3.3450 c3        1 MOL     -0.306282
    150 C52        -7.2690   -2.3440   -4.8180 c         1 MOL      0.773855
    151 O22        -8.1420   -2.1360   -5.6490 o         1 MOL     -0.757309
    152 O23        -6.2400   -2.9660   -5.1770 o         1 MOL     -0.757309
    153 H65        -5.9630    0.1420   -1.8700 hn        1 MOL      0.203684
    154 H66        -7.5130   -2.0470   -0.7350 h1        1 MOL      0.095451
    155 H67        -5.9480   -3.2220   -2.5630 hc        1 MOL      0.010689
    156 H68        -5.3980   -1.5780   -2.8890 hc        1 MOL      0.010689
    157 H69        -7.9190   -1.0300   -3.1490 hc        1 MOL      0.036985
    158 H70        -8.2490   -2.7440   -2.9950 hc        1 MOL      0.036985
    159 N14        -4.6100   -1.5760    0.5160 n         1 MOL      0.030925
    160 C53        -3.7650   -1.9630    1.6140 c3        1 MOL      0.033135
    161 C54        -4.3390   -1.3630    2.8670 c         1 MOL      0.427041
    162 O24        -4.3160   -2.0490    3.8880 o         1 MOL     -0.592111
    163 C55        -2.2940   -1.4680    1.5180 c3        1 MOL      0.109232
    164 C56        -1.6280   -1.8630    0.1950 c3        1 MOL      0.110080
    165 C57        -0.3310   -1.0950    0.0020 c         1 MOL      0.714638
    166 O25         0.7430   -1.7080    0.1030 o         1 MOL     -0.719813
    167 O26        -0.3150    0.1040   -0.3270 o         1 MOL     -0.719813
    168 H71        -4.6500   -0.5820    0.3370 hn        1 MOL     -0.052784
    169 H72        -3.7580   -3.0520    1.7410 h1        1 MOL      0.047279
    170 H73        -1.7980   -2.0320    2.3050 hc        1 MOL     -0.013687
    171 H74        -2.2160   -0.3950    1.6740 hc        1 MOL     -0.013687
    172 H75        -2.2770   -1.4780   -0.5900 hc        1 MOL     -0.099576
    173 H76        -1.4120   -2.9280    0.1410 hc        1 MOL     -0.099576
    174 N15        -4.8760   -0.1760    2.9030 n         1 MOL     -0.008796
    175 C58        -5.5960    0.3730    4.0090 c3        1 MOL     -0.267363
    176 H77        -5.2540    1.3910    4.1950 h1        1 MOL      0.087262
    177 H78        -6.6620    0.3850    3.7790 h1        1 MOL      0.087262
    178 H79        -5.4220   -0.2360    4.8950 h1        1 MOL      0.087262
    179 H80        -4.7980    0.3720    2.0610 hn        1 MOL      0.049490
    180 Ca1         2.3790    0.1300   -0.9640 Ca        1 MOL      1.759155
    181 O27         0.7260   -0.1380   -3.1490 oh        1 MOL     -0.849002
    182 H81         0.0850    0.1870   -3.7720 ho        1 MOL      0.397810
    183 H82         1.2630   -0.7490   -3.6430 ho        1 MOL      0.397810
    184 O28         1.3050    2.5550   -1.6510 oh        1 MOL     -0.849002
    185 H83         1.7580    2.7580   -2.4780 ho        1 MOL      0.397810
    186 H84         0.3960    2.8030   -1.8150 ho        1 MOL      0.397810
@<TRIPOS>BOND
     1    1    2 1   
     2    1    4 1   
     3    1    5 1   
     4    1    6 1   
     5    2    3 2   
     6    2    7 1   
     7    7    8 1   
     8    7   15 1   
     9    8    9 1   
    10    8   11 1   
    11    8   16 1   
    12    9   10 2   
    13    9   19 1   
    14   11   12 1   
    15   11   17 1   
    16   11   18 1   
    17   12   13 1   
    18   12   14 1   
    19   19   20 1   
    20   19   27 1   
    21   20   21 1   
    22   20   23 1   
    23   20   28 1   
    24   21   22 2   
    25   21   38 1   
    26   23   24 1   
    27   23   25 1   
    28   23   29 1   
    29   24   26 1   
    30   24   30 1   
    31   24   31 1   
    32   25   32 1   
    33   25   33 1   
    34   25   34 1   
    35   26   35 1   
    36   26   36 1   
    37   26   37 1   
    38   38   39 1   
    39   38   46 1   
    40   39   40 1   
    41   39   42 1   
    42   39   47 1   
    43   40   41 2   
    44   40   50 1   
    45   42   43 1   
    46   42   48 1   
    47   42   49 1   
    48   43   44 1   
    49   43   45 1   
    50   50   51 1   
    51   50   54 1   
    52   51   52 1   
    53   51   55 1   
    54   51   56 1   
    55   52   53 2   
    56   52   57 1   
    57   57   58 1   
    58   57   65 1   
    59   58   59 1   
    60   58   61 1   
    61   58   66 1   
    62   59   60 2   
    63   59   69 1   
    64   61   62 1   
    65   61   67 1   
    66   61   68 1   
    67   62   63 1   
    68   62   64 1   
    69   69   70 1   
    70   69   73 1   
    71   70   71 1   
    72   70   74 1   
    73   70   75 1   
    74   71   72 2   
    75   71   76 1   
    76   76   77 1   
    77   76   85 1   
    78   77   78 1   
    79   77   80 1   
    80   77   86 1   
    81   78   79 2   
    82   78   93 1   
    83   80   81 1   
    84   80   87 1   
    85   80   88 1   
    86   81   82 1   
    87   81   89 1   
    88   81   90 1   
    89   82   83 1   
    90   82   84 2   
    91   83   91 1   
    92   83   92 1   
    93   93   94 1   
    94   93  100 1   
    95   94   95 1   
    96   94   97 1   
    97   94  101 1   
    98   95   96 2   
    99   95  109 1   
   100   97   98 1   
   101   97   99 1   
   102   97  102 1   
   103   98  103 1   
   104   98  104 1   
   105   98  105 1   
   106   99  106 1   
   107   99  107 1   
   108   99  108 1   
   109  109  110 1   
   110  109  117 1   
   111  110  111 1   
   112  110  113 1   
   113  110  118 1   
   114  111  112 2   
   115  111  123 1   
   116  113  114 1   
   117  113  119 1   
   118  113  120 1   
   119  114  115 1   
   120  114  116 2   
   121  115  121 1   
   122  115  122 1   
   123  123  124 1   
   124  123  135 1   
   125  124  125 1   
   126  124  127 1   
   127  124  136 1   
   128  125  126 2   
   129  125  144 1   
   130  127  128 1   
   131  127  137 1   
   132  127  138 1   
   133  128  129 ar  
   134  128  130 ar  
   135  129  131 ar  
   136  129  139 1   
   137  130  132 ar  
   138  130  140 1   
   139  131  133 ar  
   140  131  141 1   
   141  132  133 ar  
   142  132  142 1   
   143  133  134 1   
   144  134  143 1   
   145  144  145 1   
   146  144  153 1   
   147  145  146 1   
   148  145  148 1   
   149  145  154 1   
   150  146  147 2   
   151  146  159 1   
   152  148  149 1   
   153  148  155 1   
   154  148  156 1   
   155  149  150 1   
   156  149  157 1   
   157  149  158 1   
   158  150  151 1   
   159  150  152 1   
   160  159  160 1   
   161  159  168 1   
   162  160  161 1   
   163  160  163 1   
   164  160  169 1   
   165  161  162 2   
   166  161  174 1   
   167  163  164 1   
   168  163  170 1   
   169  163  171 1   
   170  164  165 1   
   171  164  172 1   
   172  164  173 1   
   173  165  166 1   
   174  165  167 1   
   175  174  175 1   
   176  174  179 1   
   177  175  176 1   
   178  175  177 1   
   179  175  178 1   
   180  181  182 1   
   181  181  183 1   
   182  184  185 1   
   183  184  186 1   
@<TRIPOS>SUBSTRUCTURE
     1 MOL         1 TEMP              0 ****  ****    0 ROOT
