@<TRIPOS>MOLECULE
MOL
  179   176     1     0     0
SMALL
resp


@<TRIPOS>ATOM
      1 C1          2.1470    3.2570    4.3980 c3        1 MOL     -0.473549
      2 C2          1.3420    2.8300    3.0740 c         1 MOL      0.659138
      3 O1          1.9640    2.7740    2.0020 o         1 MOL     -0.537191
      4 H1          3.1320    2.7890    4.3910 hc        1 MOL      0.112450
      5 H2          2.2610    4.3400    4.4210 hc        1 MOL      0.112450
      6 H3          1.5960    2.9290    5.2800 hc        1 MOL      0.112450
      7 N1          0.0280    2.7370    3.2390 n         1 MOL     -0.499565
      8 C3         -0.9300    2.6580    2.1130 c3        1 MOL      0.153731
      9 C4         -1.3430    4.0360    1.5600 c         1 MOL      0.416824
     10 O2         -2.4580    4.4790    1.8060 o         1 MOL     -0.435904
     11 C5         -2.1790    1.8180    2.6300 c3        1 MOL     -0.087353
     12 C6         -3.0460    1.3910    1.4630 c         1 MOL      0.477215
     13 O3         -4.2610    1.2360    1.7090 o         1 MOL     -0.587043
     14 O4         -2.5680    1.3700    0.3370 o         1 MOL     -0.587043
     15 H4         -0.3500    2.6120    4.1690 hn        1 MOL      0.282738
     16 H5         -0.4660    2.0300    1.3570 h1        1 MOL      0.077250
     17 H6         -2.8330    2.3830    3.3040 hc        1 MOL      0.025453
     18 H7         -1.7990    0.9210    3.1350 hc        1 MOL      0.025453
     19 N2         -0.4170    4.7590    0.9130 n         1 MOL     -0.478898
     20 C7         -0.6510    6.0600    0.3360 c3        1 MOL      0.192174
     21 C8         -1.7010    5.9880   -0.7750 c         1 MOL      0.325014
     22 O5         -2.6370    6.7520   -0.7840 o         1 MOL     -0.506113
     23 C9          0.6660    6.6890   -0.1580 c3        1 MOL     -0.078189
     24 C10         1.6450    6.9550    1.0050 c3        1 MOL     -0.133867
     25 C11         2.8870    7.8230    0.5090 c3        1 MOL      0.121782
     26 C12         3.8700    8.2640    1.5910 c3        1 MOL     -0.086001
     27 N3          4.5080    7.1270    2.2890 n4        1 MOL     -0.330893
     28 H8          0.5420    4.4490    0.8930 hn        1 MOL      0.313682
     29 H9         -0.9960    6.7120    1.1400 h1        1 MOL      0.050800
     30 H10         0.4470    7.5940   -0.7240 hc        1 MOL      0.039141
     31 H11         1.1250    5.9970   -0.8570 hc        1 MOL      0.039141
     32 H12         1.9150    6.0760    1.5880 hc        1 MOL      0.033376
     33 H13         1.1030    7.5910    1.7100 hc        1 MOL      0.033376
     34 H14         2.6290    8.7180   -0.0630 hc        1 MOL      0.028310
     35 H15         3.5360    7.2710   -0.1680 hc        1 MOL      0.028310
     36 H16         3.3530    8.9170    2.2910 hx        1 MOL      0.109414
     37 H17         4.6650    8.8230    1.1030 hx        1 MOL      0.109414
     38 H18         5.1630    7.3760    3.0260 hn        1 MOL      0.326931
     39 H19         3.7930    6.5460    2.7010 hn        1 MOL      0.326931
     40 H20         5.0630    6.5240    1.7010 hn        1 MOL      0.326931
     41 N4         -1.5480    5.0250   -1.6860 n         1 MOL     -0.147586
     42 C13        -2.4810    4.7660   -2.7850 c3        1 MOL     -0.089801
     43 C14        -3.9650    4.3980   -2.3030 c         1 MOL      0.337771
     44 O6         -4.9560    4.4700   -3.0470 o         1 MOL     -0.512926
     45 C15        -1.9130    3.6410   -3.5900 c3        1 MOL     -0.180881
     46 C16        -1.6160    2.3830   -2.7510 c         1 MOL      0.761209
     47 O7         -0.5860    2.2970   -2.0790 o         1 MOL     -0.740535
     48 O8         -2.2570    1.3280   -2.9200 o         1 MOL     -0.740535
     49 H21        -0.6040    4.6640   -1.7460 hn        1 MOL      0.190270
     50 H22        -2.4410    5.6970   -3.3550 h1        1 MOL      0.108474
     51 H23        -1.0250    4.0700   -4.0590 hc        1 MOL      0.065229
     52 H24        -2.4870    3.4670   -4.5040 hc        1 MOL      0.065229
     53 N5         -4.1240    3.9790   -1.0440 n         1 MOL      0.183005
     54 C17        -5.4800    3.8090   -0.5010 c3        1 MOL     -0.306884
     55 C18        -6.2240    2.5130   -0.9330 c         1 MOL      0.528094
     56 O9         -7.4620    2.5430   -1.0130 o         1 MOL     -0.559628
     57 H25        -3.3510    3.9250   -0.3900 hn        1 MOL      0.016610
     58 H26        -6.0630    4.7140   -0.6540 h1        1 MOL      0.135686
     59 H27        -5.4340    3.6480    0.5730 h1        1 MOL      0.135686
     60 N6         -5.4840    1.4680   -1.2930 n         1 MOL     -0.134220
     61 C19        -6.0690    0.1930   -1.6580 c3        1 MOL     -0.051938
     62 C20        -6.5490   -0.7630   -0.5310 c         1 MOL      0.207727
     63 O10        -7.2690   -1.7100   -0.8140 o         1 MOL     -0.431790
     64 C21        -5.2790   -0.4930   -2.8090 c3        1 MOL      0.090506
     65 C22        -4.1230   -1.3500   -2.3860 c         1 MOL      0.536233
     66 N7         -3.8910   -2.4600   -3.0540 n         1 MOL     -0.579728
     67 O11        -3.5200   -1.1920   -1.3830 o         1 MOL     -0.680891
     68 H28        -4.4770    1.5590   -1.2330 hn        1 MOL      0.020288
     69 H29        -7.0370    0.4100   -2.0910 h1        1 MOL      0.108946
     70 H30        -5.0660    0.2370   -3.5940 hc        1 MOL      0.014633
     71 H31        -6.0140   -1.1200   -3.3270 hc        1 MOL      0.014633
     72 H32        -4.3040   -2.6740   -3.9530 hn        1 MOL      0.289386
     73 H33        -3.1470   -3.0600   -2.7430 hn        1 MOL      0.289386
     74 N8         -6.0810   -0.5560    0.7130 n         1 MOL      0.144595
     75 C23        -6.3610   -1.2630    1.9240 c3        1 MOL     -0.559487
     76 C24        -5.2060   -2.2690    2.1720 c         1 MOL      0.715742
     77 O12        -5.3830   -3.3120    2.8200 o         1 MOL     -0.554374
     78 H34        -5.4310    0.2190    0.7620 hn        1 MOL      0.066262
     79 H35        -7.2670   -1.8490    1.7210 h1        1 MOL      0.202575
     80 H36        -6.4290   -0.6010    2.7770 h1        1 MOL      0.202575
     81 N9         -4.0250   -2.0050    1.5770 n         1 MOL     -0.845237
     82 C25        -2.9110   -3.0750    1.5930 c3        1 MOL      0.625783
     83 C26        -1.5420   -2.4470    1.4680 c         1 MOL      0.143157
     84 O13        -1.4360   -1.3350    0.9590 o         1 MOL     -0.433572
     85 C27        -3.1770   -4.0500    0.4250 c3        1 MOL     -0.232319
     86 C28        -4.5020   -4.8340    0.4510 ca        1 MOL      0.231083
     87 C29        -5.6030   -4.2980   -0.1860 ca        1 MOL     -0.378438
     88 C30        -4.5250   -6.1630    1.0460 ca        1 MOL     -0.378438
     89 C31        -6.8460   -4.9570   -0.2820 ca        1 MOL     -0.063455
     90 C32        -5.7680   -6.7790    0.9910 ca        1 MOL     -0.063455
     91 C33        -6.9210   -6.2410    0.3500 ca        1 MOL      0.193690
     92 O14        -8.0940   -6.9380    0.3500 oh        1 MOL     -0.461447
     93 H37        -3.9430   -1.2020    0.9720 hn        1 MOL      0.587793
     94 H38        -2.9800   -3.5950    2.5580 h1        1 MOL     -0.039364
     95 H39        -2.3420   -4.7540    0.4560 hc        1 MOL      0.046616
     96 H40        -3.0990   -3.4800   -0.4920 hc        1 MOL      0.046616
     97 H41        -5.4300   -3.3090   -0.5910 ha        1 MOL      0.174598
     98 H42        -3.6380   -6.5220    1.5380 ha        1 MOL      0.174598
     99 H43        -7.7120   -4.4480   -0.6720 ha        1 MOL      0.100071
    100 H44        -5.8440   -7.7380    1.4910 ha        1 MOL      0.100071
    101 H45        -8.0750   -7.7370    0.8830 ho        1 MOL      0.347928
    102 N10        -0.5130   -3.1000    2.0010 n         1 MOL     -0.383863
    103 C34         0.9260   -2.7540    1.8450 c3        1 MOL      0.004462
    104 C35         1.7770   -3.9060    1.1960 c         1 MOL      0.611422
    105 O15         1.5020   -5.0190    1.5120 o         1 MOL     -0.587791
    106 C36         1.5900   -2.2790    3.2350 c3        1 MOL      0.116506
    107 C37         0.6370   -1.3640    4.1030 c3        1 MOL      0.076506
    108 C38         2.9210   -1.5310    2.9010 c3        1 MOL     -0.440773
    109 C39         0.9500   -1.4220    5.6500 c3        1 MOL     -0.287842
    110 H46        -0.7490   -3.8930    2.5820 hn        1 MOL      0.274894
    111 H47         1.0490   -2.0050    1.0640 h1        1 MOL      0.099640
    112 H48         1.7380   -3.1670    3.8460 hc        1 MOL      0.020539
    113 H49        -0.4260   -1.6180    4.0290 hc        1 MOL      0.048323
    114 H50         0.7980   -0.3360    3.7670 hc        1 MOL      0.048323
    115 H51         3.3910   -1.1990    3.8250 hc        1 MOL      0.110177
    116 H52         3.6710   -2.1560    2.3950 hc        1 MOL      0.110177
    117 H53         2.8210   -0.6100    2.3310 hc        1 MOL      0.110177
    118 H54         2.0300   -1.3020    5.7860 hc        1 MOL      0.064419
    119 H55         0.4000   -0.6470    6.1710 hc        1 MOL      0.064419
    120 H56         0.5700   -2.3890    5.9880 hc        1 MOL      0.064419
    121 N11         2.7910   -3.5370    0.4920 n         1 MOL     -0.103529
    122 C40         3.7110   -4.3770   -0.3480 c3        1 MOL     -0.019312
    123 C41         5.1010   -3.6900   -0.3370 c         1 MOL      0.531162
    124 O16         5.3110   -2.5920    0.2160 o         1 MOL     -0.351462
    125 C42         3.0920   -4.5250   -1.7420 c3        1 MOL     -0.166749
    126 O17         2.7550   -3.2530   -2.2750 oh        1 MOL     -0.437199
    127 H57         2.8080   -2.5370    0.3340 hn        1 MOL     -0.225442
    128 H58         3.8990   -5.3750    0.0580 h1        1 MOL      0.095347
    129 H59         2.1640   -5.0490   -1.5050 h1        1 MOL      0.112664
    130 H60         3.8580   -4.9580   -2.3690 h1        1 MOL      0.112664
    131 H61         2.3980   -3.3050   -3.1600 ho        1 MOL      0.390663
    132 N12         6.1310   -4.4320   -0.7960 n         1 MOL     -0.443414
    133 C43         7.4640   -4.1970   -0.3150 c3        1 MOL      0.071658
    134 C44         8.1100   -2.8940   -0.8220 c         1 MOL      0.414172
    135 O18         8.7620   -2.0820   -0.1590 o         1 MOL     -0.515016
    136 C45         8.2890   -5.4460   -0.6500 c3        1 MOL     -0.315463
    137 H62         5.8950   -5.3460   -1.1560 hn        1 MOL      0.292687
    138 H63         7.4610   -4.0650    0.7690 h1        1 MOL      0.085837
    139 H64         8.5360   -5.4290   -1.7070 hc        1 MOL      0.105420
    140 H65         9.2540   -5.4670   -0.1470 hc        1 MOL      0.105420
    141 H66         7.8120   -6.3860   -0.3790 hc        1 MOL      0.105420
    142 N13         7.8760   -2.4820   -2.0690 n         1 MOL     -0.208449
    143 C46         8.3140   -1.2760   -2.6370 c3        1 MOL      0.054588
    144 C47         7.5840   -0.0350   -2.0400 c         1 MOL      0.509960
    145 O19         8.2800    0.9400   -1.7630 o         1 MOL     -0.535455
    146 C48         8.1880   -1.3410   -4.1100 c3        1 MOL     -0.267694
    147 H67         7.3230   -3.1520   -2.5810 hn        1 MOL      0.183468
    148 H68         9.3830   -1.2270   -2.4090 h1        1 MOL      0.097367
    149 H69         7.1260   -1.4170   -4.3600 hc        1 MOL      0.076249
    150 H70         8.5820   -0.4250   -4.5560 hc        1 MOL      0.076249
    151 H71         8.7560   -2.2000   -4.4630 hc        1 MOL      0.076249
    152 N14         6.2400   -0.0390   -1.7270 n         1 MOL     -0.375483
    153 C49         5.6850    1.0670   -0.8990 c3        1 MOL     -0.014622
    154 C50         6.1370    1.0380    0.6090 c         1 MOL      0.467196
    155 O20         6.0160    1.9980    1.3640 o         1 MOL     -0.588868
    156 C51         4.1670    1.2860   -1.2040 c3        1 MOL     -0.134944
    157 C52         3.3910    0.1250   -0.4490 c3        1 MOL     -0.157495
    158 C53         1.8820    0.1700   -0.6880 c         1 MOL      1.055045
    159 O21         1.4530   -0.2440   -1.8030 o         1 MOL     -0.878985
    160 O22         1.0780    0.5580    0.1280 o         1 MOL     -0.878985
    161 H72         5.7440   -0.9200   -1.8350 hn        1 MOL      0.233291
    162 H73         6.2210    1.9490   -1.2530 h1        1 MOL      0.106504
    163 H74         4.0730    1.2500   -2.2870 hc        1 MOL      0.053158
    164 H75         3.9610    2.2640   -0.7680 hc        1 MOL      0.053158
    165 H76         3.5550    0.4290    0.5850 hc        1 MOL      0.070534
    166 H77         3.7910   -0.8680   -0.6470 hc        1 MOL      0.070534
    167 N15         6.5590   -0.1200    1.1130 n         1 MOL     -0.040302
    168 C54         7.2420   -0.2380    2.4590 c3        1 MOL     -0.202065
    169 H78         8.3150   -0.3670    2.3110 h1        1 MOL      0.089958
    170 H79         7.0630    0.6670    3.0390 h1        1 MOL      0.089958
    171 H80         6.8440   -1.0990    2.9950 h1        1 MOL      0.089958
    172 H81         6.5980   -0.9220    0.4900 hn        1 MOL      0.082391
    173 Ca1        -1.0430   -0.1580   -1.2740 Ca        1 MOL      1.733881
    174 O23        -0.0820   -2.8020   -1.5740 oh        1 MOL     -0.753988
    175 H82         0.8700   -2.7720   -1.5610 ho        1 MOL      0.369467
    176 H83        -0.2950   -3.6890   -1.8490 ho        1 MOL      0.369467
    177 O24        -1.2350   -1.1690   -4.0620 oh        1 MOL     -0.753988
    178 H84        -2.0180   -0.8530   -4.5200 ho        1 MOL      0.369467
    179 H85        -1.2210   -2.1120   -4.2280 ho        1 MOL      0.369467
@<TRIPOS>BOND
     1    1    2 1   
     2    1    4 1   
     3    1    5 1   
     4    1    6 1   
     5    2    3 2   
     6    2    7 1   
     7    7    8 1   
     8    7   15 1   
     9    8    9 1   
    10    8   11 1   
    11    8   16 1   
    12    9   10 2   
    13    9   19 1   
    14   11   12 1   
    15   11   17 1   
    16   11   18 1   
    17   12   13 1   
    18   12   14 1   
    19   19   20 1   
    20   19   28 1   
    21   20   21 1   
    22   20   23 1   
    23   20   29 1   
    24   21   22 2   
    25   21   41 1   
    26   23   24 1   
    27   23   30 1   
    28   23   31 1   
    29   24   25 1   
    30   24   32 1   
    31   24   33 1   
    32   25   26 1   
    33   25   34 1   
    34   25   35 1   
    35   26   27 1   
    36   26   36 1   
    37   26   37 1   
    38   27   38 1   
    39   27   39 1   
    40   27   40 1   
    41   41   42 1   
    42   41   49 1   
    43   42   43 1   
    44   42   45 1   
    45   42   50 1   
    46   43   44 2   
    47   43   53 1   
    48   45   46 1   
    49   45   51 1   
    50   45   52 1   
    51   46   47 1   
    52   46   48 1   
    53   53   54 1   
    54   53   57 1   
    55   54   55 1   
    56   54   58 1   
    57   54   59 1   
    58   55   56 2   
    59   55   60 1   
    60   60   61 1   
    61   60   68 1   
    62   61   62 1   
    63   61   64 1   
    64   61   69 1   
    65   62   63 2   
    66   62   74 1   
    67   64   65 1   
    68   64   70 1   
    69   64   71 1   
    70   65   66 1   
    71   65   67 2   
    72   66   72 1   
    73   66   73 1   
    74   74   75 1   
    75   74   78 1   
    76   75   76 1   
    77   75   79 1   
    78   75   80 1   
    79   76   77 2   
    80   76   81 1   
    81   81   82 1   
    82   81   93 1   
    83   82   83 1   
    84   82   85 1   
    85   82   94 1   
    86   83   84 2   
    87   83  102 1   
    88   85   86 1   
    89   85   95 1   
    90   85   96 1   
    91   86   87 ar  
    92   86   88 ar  
    93   87   89 ar  
    94   87   97 1   
    95   88   90 ar  
    96   88   98 1   
    97   89   91 ar  
    98   89   99 1   
    99   90   91 ar  
   100   90  100 1   
   101   91   92 1   
   102   92  101 1   
   103  102  103 1   
   104  102  110 1   
   105  103  104 1   
   106  103  106 1   
   107  103  111 1   
   108  104  105 2   
   109  104  121 1   
   110  106  107 1   
   111  106  108 1   
   112  106  112 1   
   113  107  109 1   
   114  107  113 1   
   115  107  114 1   
   116  108  115 1   
   117  108  116 1   
   118  108  117 1   
   119  109  118 1   
   120  109  119 1   
   121  109  120 1   
   122  121  122 1   
   123  121  127 1   
   124  122  123 1   
   125  122  125 1   
   126  122  128 1   
   127  123  124 2   
   128  123  132 1   
   129  125  126 1   
   130  125  129 1   
   131  125  130 1   
   132  126  131 1   
   133  132  133 1   
   134  132  137 1   
   135  133  134 1   
   136  133  136 1   
   137  133  138 1   
   138  134  135 2   
   139  134  142 1   
   140  136  139 1   
   141  136  140 1   
   142  136  141 1   
   143  142  143 1   
   144  142  147 1   
   145  143  144 1   
   146  143  146 1   
   147  143  148 1   
   148  144  145 2   
   149  144  152 1   
   150  146  149 1   
   151  146  150 1   
   152  146  151 1   
   153  152  153 1   
   154  152  161 1   
   155  153  154 1   
   156  153  156 1   
   157  153  162 1   
   158  154  155 2   
   159  154  167 1   
   160  156  157 1   
   161  156  163 1   
   162  156  164 1   
   163  157  158 1   
   164  157  165 1   
   165  157  166 1   
   166  158  159 1   
   167  158  160 1   
   168  167  168 1   
   169  167  172 1   
   170  168  169 1   
   171  168  170 1   
   172  168  171 1   
   173  174  175 1   
   174  174  176 1   
   175  177  178 1   
   176  177  179 1   
@<TRIPOS>SUBSTRUCTURE
     1 MOL         1 TEMP              0 ****  ****    0 ROOT
