@<TRIPOS>MOLECULE
MOL
  172   171     1     0     0
SMALL
resp


@<TRIPOS>ATOM
      1 C1         -0.1520   -3.4920    5.2790 c3        1 MOL     -0.343481
      2 C2          0.4750   -3.3720    3.8810 c         1 MOL      0.700856
      3 O1         -0.0740   -3.8990    2.8970 o         1 MOL     -0.623092
      4 H1          0.5540   -3.9770    5.9530 hc        1 MOL      0.082822
      5 H2         -0.3900   -2.4970    5.6570 hc        1 MOL      0.082822
      6 H3         -1.0640   -4.0860    5.2200 hc        1 MOL      0.082822
      7 N1          1.5870   -2.7050    3.7970 n         1 MOL     -0.527871
      8 C3          2.2550   -2.2160    2.5660 c3        1 MOL      0.069106
      9 C4          2.8640   -3.3880    1.7670 c         1 MOL      0.483585
     10 O2          3.9790   -3.7980    2.0200 o         1 MOL     -0.490932
     11 C5          3.3460   -1.1520    2.8510 c3        1 MOL     -0.233909
     12 C6          3.8850   -0.3360    1.7080 c         1 MOL      0.722191
     13 O3          4.9410    0.3120    1.9060 o         1 MOL     -0.701197
     14 O4          3.3110   -0.4600    0.6120 o         1 MOL     -0.701197
     15 H4          1.9170   -2.3150    4.6580 hn        1 MOL      0.285525
     16 H5          1.5480   -1.6700    1.9420 h1        1 MOL      0.123621
     17 H6          4.2030   -1.6570    3.2840 hc        1 MOL      0.064794
     18 H7          2.9720   -0.3900    3.5300 hc        1 MOL      0.064794
     19 N2          2.0750   -4.0130    0.8760 n         1 MOL     -0.341881
     20 C7          2.3280   -5.3080    0.2030 c3        1 MOL      0.065635
     21 C8          3.7130   -5.2410   -0.5290 c         1 MOL      0.485277
     22 O5          4.5990   -6.0540   -0.4280 o         1 MOL     -0.580379
     23 C9          1.1950   -5.7080   -0.7330 c3        1 MOL     -0.150399
     24 H8          1.1240   -3.7320    0.6870 hn        1 MOL      0.410747
     25 H9          2.3840   -6.1220    0.9210 h1        1 MOL      0.026139
     26 H10         1.1780   -6.7600   -1.0330 hc        1 MOL      0.037212
     27 H11         0.2360   -5.3580   -0.3450 hc        1 MOL      0.037212
     28 H12         1.3240   -5.1950   -1.6930 hc        1 MOL      0.037212
     29 N3          3.8810   -4.2220   -1.3100 n         1 MOL     -0.269319
     30 C10         5.1010   -3.9540   -2.0680 c3        1 MOL     -0.045634
     31 C11         6.2840   -3.3420   -1.2700 c         1 MOL      0.401792
     32 O6          7.4080   -3.2830   -1.7830 o         1 MOL     -0.567025
     33 C12         4.8000   -3.2640   -3.3930 c3        1 MOL      0.004337
     34 C13         3.9190   -2.0000   -3.4490 c         1 MOL      0.610266
     35 O7          3.9540   -1.3170   -4.5080 o         1 MOL     -0.709774
     36 O8          3.4240   -1.5650   -2.4340 o         1 MOL     -0.709774
     37 H13         3.2220   -3.4520   -1.2190 hn        1 MOL      0.197175
     38 H14         5.6070   -4.8660   -2.3840 h1        1 MOL      0.097016
     39 H15         4.3270   -4.0130   -4.0210 hc        1 MOL      0.008453
     40 H16         5.7220   -3.2010   -3.9630 hc        1 MOL      0.008453
     41 N4          6.0100   -2.6710   -0.1250 n         1 MOL      0.164782
     42 C14         7.0280   -2.0520    0.7330 c3        1 MOL     -0.341692
     43 C15         7.4680   -0.6240    0.2480 c         1 MOL      0.648674
     44 O9          8.4870   -0.1020    0.6550 o         1 MOL     -0.588491
     45 H17         5.0490   -2.6240    0.2000 hn        1 MOL     -0.113524
     46 H18         7.8940   -2.7120    0.7980 h1        1 MOL      0.133736
     47 H19         6.6610   -1.8890    1.7500 h1        1 MOL      0.133736
     48 N5          6.6940    0.0250   -0.6740 n         1 MOL     -0.447960
     49 C16         7.0630    1.2900   -1.2590 c3        1 MOL      0.017368
     50 C17         6.9980    2.5200   -0.3220 c         1 MOL      0.431400
     51 O10         7.4870    3.5990   -0.6380 o         1 MOL     -0.607000
     52 C18         6.4070    1.5430   -2.5850 c3        1 MOL     -0.092162
     53 C19         4.8940    1.8150   -2.5400 c         1 MOL      0.613954
     54 N6          4.4300    2.2550   -3.6940 n         1 MOL     -0.694371
     55 O11         4.1520    1.6950   -1.5620 o         1 MOL     -0.525370
     56 H20         5.7520   -0.3050   -0.8620 hn        1 MOL      0.294385
     57 H21         8.1080    1.2460   -1.5600 h1        1 MOL      0.084483
     58 H22         6.5940    0.6860   -3.2230 hc        1 MOL      0.045573
     59 H23         6.8910    2.3910   -3.0770 hc        1 MOL      0.045573
     60 H24         5.0050    2.5040   -4.4920 hn        1 MOL      0.334609
     61 H25         3.4190    2.3210   -3.8150 hn        1 MOL      0.334609
     62 N7          6.3170    2.3840    0.7770 n         1 MOL     -0.087971
     63 C20         6.1630    3.5760    1.7020 c3        1 MOL     -0.306135
     64 C21         4.7560    4.2840    1.7130 c         1 MOL      0.525691
     65 O12         4.6970    5.2470    2.4540 o         1 MOL     -0.565755
     66 H26         5.7900    1.5520    0.9950 hn        1 MOL      0.211311
     67 H27         6.9550    4.2940    1.4820 h1        1 MOL      0.138106
     68 H28         6.4710    3.1870    2.6660 h1        1 MOL      0.138106
     69 N8          3.7220    3.8900    0.9630 n         1 MOL     -0.029625
     70 C22         2.4080    4.5280    0.9450 c3        1 MOL     -0.454352
     71 C23         1.3290    3.4350    0.8470 c         1 MOL      0.687991
     72 O13         1.4840    2.4070    0.1620 o         1 MOL     -0.547944
     73 C24         2.2520    5.5140   -0.3160 c3        1 MOL      0.441116
     74 C25         3.1120    6.7410   -0.2390 c3        1 MOL     -0.384710
     75 O14         2.7090    4.9730   -1.5110 oh        1 MOL     -0.623330
     76 H29         3.8650    3.1810    0.2630 hn        1 MOL      0.094743
     77 H30         2.1940    5.0720    1.8680 h1        1 MOL      0.153454
     78 H31         1.2550    5.9470   -0.3870 h1        1 MOL      0.049913
     79 H32         3.6580    5.0550   -1.4350 ho        1 MOL      0.391948
     80 H33         2.9680    7.2510    0.7200 hc        1 MOL      0.091654
     81 H34         4.1490    6.4150   -0.1090 hc        1 MOL      0.091654
     82 H35         2.9800    7.4560   -1.0530 hc        1 MOL      0.091654
     83 N9          0.3520    3.5050    1.7380 n         1 MOL     -0.536346
     84 C26        -0.8670    2.6630    1.8150 c3        1 MOL      0.083497
     85 C27        -1.5940    2.9610    0.5170 c         1 MOL      0.428671
     86 O15        -1.7090    4.1690    0.1870 o         1 MOL     -0.572632
     87 C28        -1.6330    2.7800    3.1160 c3        1 MOL      0.218400
     88 C29        -0.8770    2.1640    4.2750 c3        1 MOL     -0.004317
     89 C30        -3.0930    2.2330    3.0630 c3        1 MOL     -0.159620
     90 C31        -1.2750    2.7960    5.5770 c3        1 MOL     -0.058957
     91 H36         0.3890    4.2400    2.4310 hn        1 MOL      0.290671
     92 H37        -0.5710    1.6130    1.8340 h1        1 MOL      0.079474
     93 H38        -1.7510    3.8560    3.2120 hc        1 MOL     -0.047317
     94 H39         0.1850    2.3500    4.0910 hc        1 MOL      0.000156
     95 H40        -1.0120    1.0800    4.2460 hc        1 MOL      0.000156
     96 H41        -3.6240    2.6060    3.9380 hc        1 MOL      0.006554
     97 H42        -3.6670    2.4200    2.1590 hc        1 MOL      0.006554
     98 H43        -3.0450    1.1430    3.0930 hc        1 MOL      0.006554
     99 H44        -2.3310    2.6430    5.8160 hc        1 MOL      0.009699
    100 H45        -0.7130    2.4860    6.4560 hc        1 MOL      0.009699
    101 H46        -1.0880    3.8600    5.5360 hc        1 MOL      0.009699
    102 N10        -2.1500    1.9410   -0.1000 n         1 MOL     -0.218483
    103 C32        -3.1670    1.9480   -1.2190 c3        1 MOL      0.230309
    104 C33        -4.5600    1.5380   -0.7480 c         1 MOL      0.309164
    105 O16        -4.6610    0.8860    0.2330 o         1 MOL     -0.141284
    106 C34        -2.5850    1.0050   -2.3110 c3        1 MOL     -0.420356
    107 C35        -1.1360    1.3060   -2.8110 c         1 MOL      0.851652
    108 O17        -0.3290    0.3890   -2.7550 o         1 MOL     -0.737042
    109 O18        -0.8310    2.4830   -3.2010 o         1 MOL     -0.737042
    110 H47        -1.8880    1.0080    0.1660 hn        1 MOL      0.137045
    111 H48        -3.2370    2.9560   -1.6410 h1        1 MOL      0.040545
    112 H49        -3.2630    0.9780   -3.1620 hc        1 MOL      0.086452
    113 H50        -2.6150   -0.0430   -2.0360 hc        1 MOL      0.086452
    114 N11        -5.6710    1.8080   -1.4640 n         1 MOL     -0.614086
    115 C36        -7.0180    1.2160   -1.1360 c3        1 MOL      0.363488
    116 C37        -7.0320   -0.3330   -0.8050 c         1 MOL      0.304462
    117 O19        -7.5140   -0.6440    0.2280 o         1 MOL     -0.461062
    118 C38        -8.0740    1.5360   -2.1860 c3        1 MOL     -0.229309
    119 C39        -9.4870    1.2640   -1.7650 ca        1 MOL      0.044221
    120 C40       -10.0880    2.0390   -0.8300 ca        1 MOL     -0.076520
    121 C41       -10.2640    0.2440   -2.3560 ca        1 MOL     -0.076520
    122 C42       -11.3820    1.8590   -0.3680 ca        1 MOL     -0.210437
    123 C43       -11.6270    0.0540   -1.9550 ca        1 MOL     -0.210437
    124 C44       -12.1500    0.8430   -0.9040 ca        1 MOL     -0.000152
    125 H51        -5.6110    2.2970   -2.3470 hn        1 MOL      0.332801
    126 H52        -7.3470    1.6840   -0.2120 h1        1 MOL      0.028774
    127 H53        -7.8650    0.9640   -3.0920 hc        1 MOL      0.067387
    128 H54        -7.9080    2.5860   -2.4380 hc        1 MOL      0.067387
    129 H55        -9.5220    2.8880   -0.4600 ha        1 MOL      0.095831
    130 H56        -9.8460   -0.3840   -3.1310 ha        1 MOL      0.095831
    131 H57       -11.7600    2.4510    0.4470 ha        1 MOL      0.133031
    132 H58       -12.2260   -0.7460   -2.3820 ha        1 MOL      0.133031
    133 H59       -13.1760    0.7120   -0.5860 ha        1 MOL      0.077200
    134 N12        -6.5620   -1.3050   -1.5840 n         1 MOL     -0.098056
    135 C45        -6.4530   -2.7110   -1.2240 c3        1 MOL      0.012189
    136 C46        -5.7280   -2.8720    0.0850 c         1 MOL      0.480081
    137 O20        -6.1750   -3.7100    0.8220 o         1 MOL     -0.524295
    138 C47        -5.6990   -3.3700   -2.4050 c3        1 MOL     -0.085620
    139 C48        -4.9920   -2.2230   -3.1740 c3        1 MOL     -0.025284
    140 C49        -5.9400   -1.0950   -2.8880 c3        1 MOL      0.025120
    141 H60        -7.4280   -3.1830   -1.1110 h1        1 MOL      0.060585
    142 H61        -5.0400   -4.1570   -2.0500 hc        1 MOL      0.043257
    143 H62        -6.4500   -3.8550   -3.0330 hc        1 MOL      0.043257
    144 H63        -4.0320   -2.0380   -2.6980 hc        1 MOL      0.044045
    145 H64        -4.8730   -2.5060   -4.2240 hc        1 MOL      0.044045
    146 H65        -5.3590   -0.1770   -2.8400 h1        1 MOL      0.005581
    147 H66        -6.6810   -1.0050   -3.6880 h1        1 MOL      0.005581
    148 N13        -4.6780   -2.0900    0.3890 n         1 MOL     -0.215235
    149 C50        -3.9560   -2.1240    1.6900 c3        1 MOL     -0.060319
    150 C51        -4.7120   -1.4510    2.8700 c         1 MOL      0.389348
    151 O21        -4.8320   -2.0110    3.9890 o         1 MOL     -0.573388
    152 C52        -2.5650   -1.5040    1.5400 c3        1 MOL      0.066582
    153 C53        -1.8050   -2.0280    0.3410 c3        1 MOL     -0.103357
    154 C54        -0.3980   -1.4480    0.0700 c         1 MOL      0.692594
    155 O22         0.4900   -2.1710   -0.4810 o         1 MOL     -0.794169
    156 O23        -0.1210   -0.3000    0.3390 o         1 MOL     -0.794169
    157 H67        -4.4730   -1.3140   -0.2360 hn        1 MOL      0.070683
    158 H68        -3.7840   -3.1660    1.9630 h1        1 MOL      0.110151
    159 H69        -1.9400   -1.7880    2.3860 hc        1 MOL      0.021122
    160 H70        -2.6630   -0.4120    1.5100 hc        1 MOL      0.021122
    161 H71        -2.3720   -1.8050   -0.5590 hc        1 MOL      0.032502
    162 H72        -1.7140   -3.1120    0.3930 hc        1 MOL      0.032502
    163 N14        -5.4500   -0.3740    2.6410 n         1 MOL      0.114327
    164 C55        -6.4110    0.2540    3.5180 c3        1 MOL     -0.243476
    165 H73        -6.5060   -0.3340    4.4310 h1        1 MOL      0.084274
    166 H74        -6.0750    1.2600    3.7670 h1        1 MOL      0.084274
    167 H75        -7.3790    0.3070    3.0190 h1        1 MOL      0.084274
    168 H76        -5.3740   -0.0580    1.6820 hn        1 MOL     -0.061170
    169 Ca1         1.8010    0.0820   -1.3270 Ca        1 MOL      1.742338
    170 O24         1.6890    2.7570   -2.6390 oh        1 MOL     -0.955610
    171 H77         0.7720    2.9400   -2.8680 ho        1 MOL      0.463780
    172 H78         1.9470    3.5000   -2.0860 ho        1 MOL      0.463780
@<TRIPOS>BOND
     1    1    2 1   
     2    1    4 1   
     3    1    5 1   
     4    1    6 1   
     5    2    3 2   
     6    2    7 1   
     7    7    8 1   
     8    7   15 1   
     9    8    9 1   
    10    8   11 1   
    11    8   16 1   
    12    9   10 2   
    13    9   19 1   
    14   11   12 1   
    15   11   17 1   
    16   11   18 1   
    17   12   13 1   
    18   12   14 1   
    19   19   20 1   
    20   19   24 1   
    21   20   21 1   
    22   20   23 1   
    23   20   25 1   
    24   21   22 2   
    25   21   29 1   
    26   23   26 1   
    27   23   27 1   
    28   23   28 1   
    29   29   30 1   
    30   29   37 1   
    31   30   31 1   
    32   30   33 1   
    33   30   38 1   
    34   31   32 2   
    35   31   41 1   
    36   33   34 1   
    37   33   39 1   
    38   33   40 1   
    39   34   35 1   
    40   34   36 1   
    41   41   42 1   
    42   41   45 1   
    43   42   43 1   
    44   42   46 1   
    45   42   47 1   
    46   43   44 2   
    47   43   48 1   
    48   48   49 1   
    49   48   56 1   
    50   49   50 1   
    51   49   52 1   
    52   49   57 1   
    53   50   51 2   
    54   50   62 1   
    55   52   53 1   
    56   52   58 1   
    57   52   59 1   
    58   53   54 1   
    59   53   55 2   
    60   54   60 1   
    61   54   61 1   
    62   62   63 1   
    63   62   66 1   
    64   63   64 1   
    65   63   67 1   
    66   63   68 1   
    67   64   65 2   
    68   64   69 1   
    69   69   70 1   
    70   69   76 1   
    71   70   71 1   
    72   70   73 1   
    73   70   77 1   
    74   71   72 2   
    75   71   83 1   
    76   73   74 1   
    77   73   75 1   
    78   73   78 1   
    79   74   80 1   
    80   74   81 1   
    81   74   82 1   
    82   75   79 1   
    83   83   84 1   
    84   83   91 1   
    85   84   85 1   
    86   84   87 1   
    87   84   92 1   
    88   85   86 2   
    89   85  102 1   
    90   87   88 1   
    91   87   89 1   
    92   87   93 1   
    93   88   90 1   
    94   88   94 1   
    95   88   95 1   
    96   89   96 1   
    97   89   97 1   
    98   89   98 1   
    99   90   99 1   
   100   90  100 1   
   101   90  101 1   
   102  102  103 1   
   103  102  110 1   
   104  103  104 1   
   105  103  106 1   
   106  103  111 1   
   107  104  105 2   
   108  104  114 1   
   109  106  107 1   
   110  106  112 1   
   111  106  113 1   
   112  107  108 1   
   113  107  109 1   
   114  114  115 1   
   115  114  125 1   
   116  115  116 1   
   117  115  118 1   
   118  115  126 1   
   119  116  117 2   
   120  116  134 1   
   121  118  119 1   
   122  118  127 1   
   123  118  128 1   
   124  119  120 ar  
   125  119  121 ar  
   126  120  122 ar  
   127  120  129 1   
   128  121  123 ar  
   129  121  130 1   
   130  122  124 ar  
   131  122  131 1   
   132  123  124 ar  
   133  123  132 1   
   134  124  133 1   
   135  134  135 1   
   136  134  140 1   
   137  135  136 1   
   138  135  138 1   
   139  135  141 1   
   140  136  137 2   
   141  136  148 1   
   142  138  139 1   
   143  138  142 1   
   144  138  143 1   
   145  139  140 1   
   146  139  144 1   
   147  139  145 1   
   148  140  146 1   
   149  140  147 1   
   150  148  149 1   
   151  148  157 1   
   152  149  150 1   
   153  149  152 1   
   154  149  158 1   
   155  150  151 2   
   156  150  163 1   
   157  152  153 1   
   158  152  159 1   
   159  152  160 1   
   160  153  154 1   
   161  153  161 1   
   162  153  162 1   
   163  154  155 1   
   164  154  156 1   
   165  163  164 1   
   166  163  168 1   
   167  164  165 1   
   168  164  166 1   
   169  164  167 1   
   170  170  171 1   
   171  170  172 1   
@<TRIPOS>SUBSTRUCTURE
     1 MOL         1 TEMP              0 ****  ****    0 ROOT
