@<TRIPOS>MOLECULE
MOL
  186   183     1     0     0
SMALL
resp


@<TRIPOS>ATOM
      1 C1          1.0620   -2.0320    6.3360 c3        1 MOL     -0.346413
      2 C2          1.1920   -1.9860    4.8240 c         1 MOL      0.793217
      3 O1          0.4310   -2.4180    3.9780 o         1 MOL     -0.659397
      4 H1          2.0410   -2.2190    6.7780 hc        1 MOL      0.079220
      5 H2          0.6770   -1.0790    6.6970 hc        1 MOL      0.079220
      6 H3          0.3780   -2.8320    6.6180 hc        1 MOL      0.079220
      7 N1          2.3460   -1.4970    4.3740 n         1 MOL     -0.532488
      8 C3          2.7520   -1.4770    3.0270 c3        1 MOL      0.057903
      9 C4          3.2830   -2.8620    2.5650 c         1 MOL      0.586488
     10 O2          4.3500   -3.2980    3.0060 o         1 MOL     -0.560921
     11 C5          3.8040   -0.3490    3.0630 c3        1 MOL     -0.409680
     12 C6          4.5650   -0.2110    1.7340 c         1 MOL      0.993020
     13 O3          5.6750    0.2730    1.8190 o         1 MOL     -0.764574
     14 O4          4.0520   -0.4920    0.6380 o         1 MOL     -0.764574
     15 H4          2.9700   -1.0760    5.0390 hn        1 MOL      0.285994
     16 H5          1.9350   -1.2540    2.3480 h1        1 MOL      0.078149
     17 H6          4.5120   -0.5970    3.8510 hc        1 MOL      0.096842
     18 H7          3.2430    0.5760    3.2090 hc        1 MOL      0.096842
     19 N2          2.5500   -3.5350    1.6810 n         1 MOL     -0.343711
     20 C7          2.8020   -4.9170    1.1970 c3        1 MOL     -0.018121
     21 C8          3.8650   -4.9780    0.1320 c         1 MOL      0.502013
     22 O5          4.8450   -5.7150    0.2870 o         1 MOL     -0.581292
     23 C9          1.4340   -5.4750    0.6530 c3        1 MOL      0.194191
     24 C10         0.2140   -5.3220    1.6520 c3        1 MOL     -0.009644
     25 C11         1.6090   -7.0060    0.2970 c3        1 MOL     -0.287598
     26 C12        -1.0220   -6.0990    1.1610 c3        1 MOL     -0.211840
     27 H8          1.8360   -3.1320    1.0960 hn        1 MOL      0.145487
     28 H9          3.0550   -5.5780    2.0270 h1        1 MOL      0.051887
     29 H10         1.1630   -4.9410   -0.2630 hc        1 MOL      0.036403
     30 H11        -0.0140   -4.2730    1.8650 hc        1 MOL      0.021251
     31 H12         0.5210   -5.6540    2.6410 hc        1 MOL      0.021251
     32 H13         1.5740   -7.6000    1.2110 hc        1 MOL      0.056256
     33 H14         0.8320   -7.3610   -0.3740 hc        1 MOL      0.056256
     34 H15         2.5730   -7.1830   -0.1780 hc        1 MOL      0.056256
     35 H16        -1.9040   -5.8350    1.7480 hc        1 MOL      0.050226
     36 H17        -1.2130   -5.9310    0.1020 hc        1 MOL      0.050226
     37 H18        -0.8050   -7.1450    1.3770 hc        1 MOL      0.050226
     38 N3          3.6440   -4.1540   -0.9060 n         1 MOL     -0.251364
     39 C13         4.5780   -4.1170   -2.0710 c3        1 MOL     -0.100597
     40 C14         5.8340   -3.2070   -1.9160 c         1 MOL      0.473316
     41 O6          6.6490   -3.2120   -2.7880 o         1 MOL     -0.489689
     42 C15         3.7420   -3.9000   -3.3580 c3        1 MOL     -0.045906
     43 C16         2.9820   -2.5540   -3.4690 c         1 MOL      0.796879
     44 O7          1.8410   -2.5110   -4.1130 o         1 MOL     -0.734623
     45 O8          3.3520   -1.5590   -2.8600 o         1 MOL     -0.734623
     46 H19         2.8380   -3.5620   -0.8210 hn        1 MOL      0.142684
     47 H20         4.8620   -5.1550   -2.1810 h1        1 MOL      0.104235
     48 H21         2.9860   -4.6640   -3.5410 hc        1 MOL      0.001678
     49 H22         4.4220   -3.9120   -4.2110 hc        1 MOL      0.001678
     50 N4          6.0440   -2.6470   -0.6800 n         1 MOL     -0.201793
     51 C17         7.2430   -1.9640   -0.2550 c3        1 MOL     -0.180825
     52 C18         7.6080   -0.7360   -1.0540 c         1 MOL      0.644410
     53 O9          8.5990   -0.7210   -1.7790 o         1 MOL     -0.612641
     54 H23         5.3440   -2.8020    0.0370 hn        1 MOL      0.228806
     55 H24         8.1090   -2.6130   -0.1000 h1        1 MOL      0.081960
     56 H25         7.0370   -1.6160    0.7500 h1        1 MOL      0.081960
     57 N5          6.9580    0.3750   -0.7820 n         1 MOL     -0.395023
     58 C19         7.1230    1.6620   -1.4700 c3        1 MOL      0.090185
     59 C20         7.0740    2.8060   -0.4930 c         1 MOL      0.399373
     60 O10         7.3320    3.9670   -0.9170 o         1 MOL     -0.560033
     61 C21         6.2180    1.7160   -2.6970 c3        1 MOL     -0.069046
     62 C22         4.7040    1.5770   -2.4150 c         1 MOL      0.746010
     63 O11         4.3160    1.8650   -1.2600 o         1 MOL     -0.715790
     64 O12         3.9040    1.2250   -3.2770 o         1 MOL     -0.715790
     65 H26         6.1900    0.2930   -0.1320 hn        1 MOL      0.055287
     66 H27         8.1760    1.6230   -1.7660 h1        1 MOL      0.058479
     67 H28         6.4820    0.9770   -3.4500 hc        1 MOL      0.019785
     68 H29         6.4280    2.6540   -3.2100 hc        1 MOL      0.019785
     69 N6          6.7870    2.5490    0.7650 n         1 MOL     -0.237294
     70 C23         6.5860    3.5650    1.7890 c3        1 MOL     -0.195999
     71 C24         5.3240    4.3800    1.5870 c         1 MOL      0.575150
     72 O13         5.3020    5.5500    2.0110 o         1 MOL     -0.599281
     73 H30         6.7940    1.5820    1.0430 hn        1 MOL      0.296180
     74 H31         7.4210    4.2730    1.8560 h1        1 MOL      0.097727
     75 H32         6.5690    3.0030    2.7240 h1        1 MOL      0.097727
     76 N7          4.2690    3.8240    1.0010 n         1 MOL     -0.436048
     77 C25         2.8960    4.2800    1.0150 c3        1 MOL      0.093890
     78 C26         1.9100    3.1120    1.2890 c         1 MOL      0.529344
     79 O14         2.1220    2.0040    0.8310 o         1 MOL     -0.615078
     80 C27         2.5530    4.9960   -0.2770 c3        1 MOL      0.020803
     81 C28         3.1840    6.3590   -0.3420 c3        1 MOL     -0.247420
     82 C29         2.6970    7.1880   -1.4970 c         1 MOL      0.649010
     83 N8          3.5830    7.4720   -2.4790 n         1 MOL     -0.802711
     84 O15         1.5900    7.7250   -1.5620 o         1 MOL     -0.576330
     85 H33         4.4270    3.0390    0.3860 hn        1 MOL      0.348950
     86 H34         2.7830    5.0150    1.8060 h1        1 MOL      0.033695
     87 H35         1.4720    5.1070   -0.2990 hc        1 MOL      0.028316
     88 H36         2.9790    4.3690   -1.0590 hc        1 MOL      0.028316
     89 H37         4.2600    6.3170   -0.5410 hc        1 MOL      0.093288
     90 H38         3.1150    6.9930    0.5350 hc        1 MOL      0.093288
     91 H39         4.4940    7.0480   -2.5100 hn        1 MOL      0.353090
     92 H40         3.2720    7.9900   -3.2860 hn        1 MOL      0.353090
     93 N9          0.7530    3.4020    1.9420 n         1 MOL     -0.460776
     94 C30        -0.3260    2.5210    2.0990 c3        1 MOL      0.052005
     95 C31        -1.4370    2.9240    1.0690 c         1 MOL      0.461202
     96 O16        -2.0590    3.9780    1.2240 o         1 MOL     -0.569138
     97 C32        -0.8290    2.5370    3.5780 c3        1 MOL      0.078264
     98 C33        -2.1510    1.7550    3.7790 c3        1 MOL     -0.217514
     99 C34         0.2480    1.8050    4.4180 c3        1 MOL     -0.217514
    100 H41         0.6570    4.3770    2.2150 hn        1 MOL      0.273874
    101 H42        -0.0380    1.4950    1.8600 h1        1 MOL      0.188096
    102 H43        -0.9170    3.5250    4.0470 hc        1 MOL      0.013023
    103 H44        -2.0430    0.7800    3.3170 hc        1 MOL      0.044672
    104 H45        -2.4170    1.5340    4.8170 hc        1 MOL      0.044672
    105 H46        -2.9210    2.3030    3.2290 hc        1 MOL      0.044672
    106 H47         1.2680    2.1580    4.2590 hc        1 MOL      0.044672
    107 H48         0.0770    1.9240    5.4870 hc        1 MOL      0.044672
    108 H49         0.2360    0.7380    4.2130 hc        1 MOL      0.044672
    109 N10        -1.5970    2.1300    0.0140 n         1 MOL     -0.187442
    110 C35        -2.7430    2.2380   -0.9140 c3        1 MOL     -0.052853
    111 C36        -4.0340    1.8750   -0.1730 c         1 MOL      0.306740
    112 O17        -4.0330    1.1910    0.8860 o         1 MOL     -0.321692
    113 C37        -2.4910    1.1190   -1.9760 c3        1 MOL      0.002047
    114 C38        -3.4600    1.2690   -3.1310 c         1 MOL      0.612898
    115 N11        -3.3420    0.4360   -4.1100 n         1 MOL     -0.786841
    116 O18        -4.3120    2.1670   -3.2390 o         1 MOL     -0.604986
    117 H50        -0.9800    1.3210    0.0640 hn        1 MOL      0.119859
    118 H51        -2.6720    3.1990   -1.4070 h1        1 MOL      0.091577
    119 H52        -2.7060    0.1580   -1.5090 hc        1 MOL      0.057973
    120 H53        -1.4940    1.1100   -2.4090 hc        1 MOL      0.057973
    121 H54        -2.7650   -0.3910   -4.0980 hn        1 MOL      0.380956
    122 H55        -4.0270    0.4840   -4.8540 hn        1 MOL      0.380956
    123 N12        -5.1620    2.2330   -0.6860 n         1 MOL     -0.294833
    124 C39        -6.5380    2.0470   -0.1520 c3        1 MOL      0.163247
    125 C40        -6.7580    0.5170    0.0450 c         1 MOL      0.532853
    126 O19        -7.1820    0.0010    1.0770 o         1 MOL     -0.496364
    127 C41        -7.4970    2.6930   -1.1500 c3        1 MOL     -0.182386
    128 C42        -8.9510    2.3920   -0.7710 ca        1 MOL      0.012345
    129 C43        -9.4670    3.1180    0.2910 ca        1 MOL     -0.158598
    130 C44        -9.6820    1.3780   -1.3880 ca        1 MOL     -0.158598
    131 C45       -10.7010    2.8430    0.8590 ca        1 MOL     -0.253775
    132 C46       -11.0080    1.1900   -0.9040 ca        1 MOL     -0.253775
    133 C47       -11.4670    1.8210    0.2540 ca        1 MOL      0.327790
    134 O20       -12.6270    1.3310    0.8200 oh        1 MOL     -0.496557
    135 H56        -5.1130    2.9360   -1.4130 hn        1 MOL      0.233347
    136 H57        -6.5510    2.5010    0.8370 h1        1 MOL      0.025561
    137 H58        -7.3320    2.2740   -2.1440 hc        1 MOL      0.080239
    138 H59        -7.2730    3.7580   -1.2300 hc        1 MOL      0.080239
    139 H60        -8.9040    3.9030    0.7860 ha        1 MOL      0.140938
    140 H61        -9.2310    0.8710   -2.2280 ha        1 MOL      0.140938
    141 H62       -11.0560    3.3290    1.7520 ha        1 MOL      0.146535
    142 H63       -11.6360    0.4570   -1.3960 ha        1 MOL      0.146535
    143 H64       -12.9090    0.5780    0.2930 ho        1 MOL      0.349405
    144 N13        -6.4980   -0.2670   -1.0080 n         1 MOL     -0.383534
    145 C48        -6.4540   -1.7570   -0.9920 c3        1 MOL      0.188540
    146 C49        -5.5090   -2.2920    0.1690 c         1 MOL      0.221350
    147 O21        -5.6900   -3.3290    0.7350 o         1 MOL     -0.501414
    148 C50        -5.8430   -2.0730   -2.4030 c3        1 MOL     -0.115257
    149 C51        -6.0260   -3.5540   -2.7870 c3        1 MOL     -0.175974
    150 C52        -5.4950   -3.8630   -4.2130 c         1 MOL      0.705317
    151 O22        -6.1060   -3.3060   -5.2010 o         1 MOL     -0.732905
    152 O23        -4.4920   -4.5810   -4.3360 o         1 MOL     -0.732905
    153 H65        -6.1650    0.1460   -1.8730 hn        1 MOL      0.230632
    154 H66        -7.4220   -2.2190   -0.7970 h1        1 MOL      0.057109
    155 H67        -4.8030   -1.7620   -2.5170 hc        1 MOL      0.018910
    156 H68        -6.4810   -1.5080   -3.0790 hc        1 MOL      0.018910
    157 H69        -7.0390   -3.9530   -2.6340 hc        1 MOL      0.026716
    158 H70        -5.4730   -4.1750   -2.0850 hc        1 MOL      0.026716
    159 N14        -4.3610   -1.7170    0.4480 n         1 MOL      0.089482
    160 C53        -3.4570   -2.0620    1.6100 c3        1 MOL     -0.297491
    161 C54        -4.0580   -1.6710    2.9960 c         1 MOL      0.448280
    162 O24        -3.9210   -2.3520    4.0280 o         1 MOL     -0.592500
    163 C55        -2.0360   -1.5240    1.4690 c3        1 MOL      0.086737
    164 C56        -1.4020   -2.2310    0.2060 c3        1 MOL     -0.224338
    165 C57        -0.1120   -1.5430   -0.1770 c         1 MOL      0.649417
    166 O25         0.9180   -2.1710   -0.5900 o         1 MOL     -0.719974
    167 O26         0.0140   -0.3250   -0.0460 o         1 MOL     -0.719974
    168 H71        -4.2530   -0.8640   -0.0940 hn        1 MOL      0.021793
    169 H72        -3.4290   -3.1440    1.6410 h1        1 MOL      0.163896
    170 H73        -1.4210   -1.7130    2.3400 hc        1 MOL      0.074327
    171 H74        -2.1570   -0.4350    1.4320 hc        1 MOL      0.074327
    172 H75        -2.0890   -2.4270   -0.6180 hc        1 MOL      0.110092
    173 H76        -1.1120   -3.2280    0.5660 hc        1 MOL      0.110092
    174 N15        -4.8820   -0.6600    2.9900 n         1 MOL      0.155942
    175 C58        -5.6190   -0.1810    4.1750 c3        1 MOL     -0.286065
    176 H77        -6.6780   -0.0940    3.9330 h1        1 MOL      0.088005
    177 H78        -5.4910   -0.8900    4.9940 h1        1 MOL      0.088005
    178 H79        -5.2330    0.7930    4.4740 h1        1 MOL      0.088005
    179 H80        -5.0780   -0.3050    2.0710 hn        1 MOL     -0.069253
    180 Ca1         2.3380    0.1300   -1.1780 Ca        1 MOL      1.770798
    181 O27         1.6980    2.5480   -2.5720 oh        1 MOL     -0.831559
    182 H81         1.2240    3.2310   -3.0280 ho        1 MOL      0.385308
    183 H82         2.4200    2.3080   -3.1520 ho        1 MOL      0.385308
    184 O28         0.5950   -0.2580   -3.3130 oh        1 MOL     -0.831559
    185 H83        -0.1820   -0.1040   -3.8530 ho        1 MOL      0.385308
    186 H84         0.9780   -1.0510   -3.6660 ho        1 MOL      0.385308
@<TRIPOS>BOND
     1    1    2 1   
     2    1    4 1   
     3    1    5 1   
     4    1    6 1   
     5    2    3 2   
     6    2    7 1   
     7    7    8 1   
     8    7   15 1   
     9    8    9 1   
    10    8   11 1   
    11    8   16 1   
    12    9   10 2   
    13    9   19 1   
    14   11   12 1   
    15   11   17 1   
    16   11   18 1   
    17   12   13 1   
    18   12   14 1   
    19   19   20 1   
    20   19   27 1   
    21   20   21 1   
    22   20   23 1   
    23   20   28 1   
    24   21   22 2   
    25   21   38 1   
    26   23   24 1   
    27   23   25 1   
    28   23   29 1   
    29   24   26 1   
    30   24   30 1   
    31   24   31 1   
    32   25   32 1   
    33   25   33 1   
    34   25   34 1   
    35   26   35 1   
    36   26   36 1   
    37   26   37 1   
    38   38   39 1   
    39   38   46 1   
    40   39   40 1   
    41   39   42 1   
    42   39   47 1   
    43   40   41 2   
    44   40   50 1   
    45   42   43 1   
    46   42   48 1   
    47   42   49 1   
    48   43   44 1   
    49   43   45 1   
    50   50   51 1   
    51   50   54 1   
    52   51   52 1   
    53   51   55 1   
    54   51   56 1   
    55   52   53 2   
    56   52   57 1   
    57   57   58 1   
    58   57   65 1   
    59   58   59 1   
    60   58   61 1   
    61   58   66 1   
    62   59   60 2   
    63   59   69 1   
    64   61   62 1   
    65   61   67 1   
    66   61   68 1   
    67   62   63 1   
    68   62   64 1   
    69   69   70 1   
    70   69   73 1   
    71   70   71 1   
    72   70   74 1   
    73   70   75 1   
    74   71   72 2   
    75   71   76 1   
    76   76   77 1   
    77   76   85 1   
    78   77   78 1   
    79   77   80 1   
    80   77   86 1   
    81   78   79 2   
    82   78   93 1   
    83   80   81 1   
    84   80   87 1   
    85   80   88 1   
    86   81   82 1   
    87   81   89 1   
    88   81   90 1   
    89   82   83 1   
    90   82   84 2   
    91   83   91 1   
    92   83   92 1   
    93   93   94 1   
    94   93  100 1   
    95   94   95 1   
    96   94   97 1   
    97   94  101 1   
    98   95   96 2   
    99   95  109 1   
   100   97   98 1   
   101   97   99 1   
   102   97  102 1   
   103   98  103 1   
   104   98  104 1   
   105   98  105 1   
   106   99  106 1   
   107   99  107 1   
   108   99  108 1   
   109  109  110 1   
   110  109  117 1   
   111  110  111 1   
   112  110  113 1   
   113  110  118 1   
   114  111  112 2   
   115  111  123 1   
   116  113  114 1   
   117  113  119 1   
   118  113  120 1   
   119  114  115 1   
   120  114  116 2   
   121  115  121 1   
   122  115  122 1   
   123  123  124 1   
   124  123  135 1   
   125  124  125 1   
   126  124  127 1   
   127  124  136 1   
   128  125  126 2   
   129  125  144 1   
   130  127  128 1   
   131  127  137 1   
   132  127  138 1   
   133  128  129 ar  
   134  128  130 ar  
   135  129  131 ar  
   136  129  139 1   
   137  130  132 ar  
   138  130  140 1   
   139  131  133 ar  
   140  131  141 1   
   141  132  133 ar  
   142  132  142 1   
   143  133  134 1   
   144  134  143 1   
   145  144  145 1   
   146  144  153 1   
   147  145  146 1   
   148  145  148 1   
   149  145  154 1   
   150  146  147 2   
   151  146  159 1   
   152  148  149 1   
   153  148  155 1   
   154  148  156 1   
   155  149  150 1   
   156  149  157 1   
   157  149  158 1   
   158  150  151 1   
   159  150  152 1   
   160  159  160 1   
   161  159  168 1   
   162  160  161 1   
   163  160  163 1   
   164  160  169 1   
   165  161  162 2   
   166  161  174 1   
   167  163  164 1   
   168  163  170 1   
   169  163  171 1   
   170  164  165 1   
   171  164  172 1   
   172  164  173 1   
   173  165  166 1   
   174  165  167 1   
   175  174  175 1   
   176  174  179 1   
   177  175  176 1   
   178  175  177 1   
   179  175  178 1   
   180  181  182 1   
   181  181  183 1   
   182  184  185 1   
   183  184  186 1   
@<TRIPOS>SUBSTRUCTURE
     1 MOL         1 TEMP              0 ****  ****    0 ROOT
