@<TRIPOS>MOLECULE
MOL
  189   185     1     0     0
SMALL
resp


@<TRIPOS>ATOM
      1 C1          1.2120    3.3240   -5.9590 c3        1 MOL     -0.475902
      2 C2          1.3380    2.7990   -4.5770 c         1 MOL      0.910783
      3 O1          0.2910    2.6030   -3.9820 o         1 MOL     -0.679154
      4 H1          2.1690    3.2300   -6.4710 hc        1 MOL      0.107126
      5 H2          0.4540    2.7530   -6.4970 hc        1 MOL      0.107126
      6 H3          0.9200    4.3730   -5.9240 hc        1 MOL      0.107126
      7 N1          2.4970    2.5020   -4.0620 n         1 MOL     -0.635971
      8 C3          2.7280    2.0970   -2.6460 c3        1 MOL      0.137382
      9 C4          2.9850    3.3640   -1.7660 c         1 MOL      0.501802
     10 O2          3.7520    4.2930   -2.1340 o         1 MOL     -0.572659
     11 C5          3.8850    1.0920   -2.5450 c3        1 MOL     -0.060713
     12 C6          4.1090    0.5300   -1.1340 c         1 MOL      0.882432
     13 O3          5.2320    0.1350   -0.8370 o         1 MOL     -0.798557
     14 O4          3.0800    0.3860   -0.3750 o         1 MOL     -0.798557
     15 H4          3.3140    2.6950   -4.6110 hn        1 MOL      0.302653
     16 H5          1.8560    1.5710   -2.2540 h1        1 MOL      0.022670
     17 H6          4.8100    1.5940   -2.8360 hc        1 MOL      0.013388
     18 H7          3.7090    0.2380   -3.1890 hc        1 MOL      0.013388
     19 N2          2.3440    3.4440   -0.6010 n         1 MOL     -0.611592
     20 C7          2.2010    4.7250    0.1820 c3        1 MOL      0.499411
     21 C8          2.9380    4.6430    1.5250 c         1 MOL      0.367125
     22 O5          3.2550    5.6680    2.0570 o         1 MOL     -0.590024
     23 C9          0.7700    5.1850    0.3100 c3        1 MOL     -0.146389
     24 C10        -0.0750    5.2680   -1.0110 c3        1 MOL     -0.068297
     25 C11         0.3970    6.2690   -2.0700 c3        1 MOL      0.017581
     26 C12        -0.2240    6.0520   -3.4620 c3        1 MOL      0.113454
     27 N3          0.2630    7.1170   -4.3120 n4        1 MOL     -0.515954
     28 H8          1.7670    2.6740   -0.2920 hn        1 MOL      0.277486
     29 H9          2.6800    5.5610   -0.3400 h1        1 MOL     -0.048478
     30 H10         0.8440    6.1520    0.8060 hc        1 MOL      0.030237
     31 H11         0.2650    4.4990    0.9850 hc        1 MOL      0.030237
     32 H12        -1.1320    5.4340   -0.7970 hc        1 MOL      0.060498
     33 H13        -0.0700    4.2790   -1.4680 hc        1 MOL      0.060498
     34 H14         1.4450    6.2760   -2.3480 hc        1 MOL      0.016045
     35 H15         0.0800    7.2540   -1.7030 hc        1 MOL      0.016045
     36 H16        -1.2870    5.9450   -3.2680 hx        1 MOL      0.059339
     37 H17         0.1400    5.1210   -3.9000 hx        1 MOL      0.059339
     38 H18         1.2520    7.1230   -4.4940 hn        1 MOL      0.358861
     39 H19        -0.1880    6.9510   -5.1960 hn        1 MOL      0.358861
     40 H20         0.0560    8.0570   -3.9920 hn        1 MOL      0.358861
     41 N4          3.2280    3.5120    2.1270 n         1 MOL     -0.105818
     42 C13         4.0430    3.3580    3.3190 c3        1 MOL     -0.054405
     43 C14         5.3930    2.6300    3.0280 c         1 MOL      0.392432
     44 O6          6.0160    2.1380    4.0360 o         1 MOL     -0.478122
     45 C15         3.2440    2.7100    4.5060 c3        1 MOL     -0.045636
     46 C16         2.3110    1.5850    4.2690 c         1 MOL      0.672030
     47 O7          2.0710    1.1500    3.0940 o         1 MOL     -0.703661
     48 O8          1.6320    1.0950    5.2410 o         1 MOL     -0.703661
     49 H21         2.6590    2.7340    1.8180 hn        1 MOL      0.088666
     50 H22         4.3140    4.3360    3.7110 h1        1 MOL      0.111072
     51 H23         2.6250    3.4830    4.9740 hc        1 MOL      0.030573
     52 H24         3.9520    2.4850    5.3130 hc        1 MOL      0.030573
     53 N5          5.9480    2.6240    1.7830 n         1 MOL     -0.343639
     54 C17         7.3160    2.1420    1.4520 c3        1 MOL     -0.108807
     55 C18         7.6190    0.6240    1.3870 c         1 MOL      0.520270
     56 O9          8.7710    0.2850    1.5480 o         1 MOL     -0.593560
     57 H25         5.5220    3.1790    1.0520 hn        1 MOL      0.269150
     58 H26         8.0520    2.5920    2.1190 h1        1 MOL      0.093900
     59 H27         7.5780    2.4570    0.4450 h1        1 MOL      0.093900
     60 N6          6.6860   -0.3430    1.3920 n         1 MOL     -0.119771
     61 C19         6.8800   -1.7750    1.7760 c3        1 MOL     -0.197767
     62 C20         6.7190   -2.6930    0.5920 c         1 MOL      0.490616
     63 O10         6.9490   -3.8830    0.7560 o         1 MOL     -0.577657
     64 C21         5.8300   -2.1230    2.9230 c3        1 MOL     -0.080922
     65 C22         4.2950   -2.0480    2.4950 c         1 MOL      0.565646
     66 O11         3.3900   -1.9320    3.3310 o         1 MOL     -0.621057
     67 O12         3.9430   -2.2030    1.2660 o         1 MOL     -0.621057
     68 H28         5.7380   -0.1350    1.0990 hn        1 MOL      0.129467
     69 H29         7.9040   -1.8500    2.1330 h1        1 MOL      0.158875
     70 H30         5.9020   -1.4410    3.7710 hc        1 MOL      0.055094
     71 H31         6.0390   -3.1180    3.3110 hc        1 MOL      0.055094
     72 N7          6.3100   -2.2710   -0.5020 n         1 MOL     -0.185314
     73 C23         6.4530   -2.9530   -1.6910 c3        1 MOL     -0.059325
     74 C24         5.3450   -3.9450   -2.0320 c         1 MOL      0.538340
     75 O13         5.5310   -4.9480   -2.6450 o         1 MOL     -0.542376
     76 H32         5.8850   -1.3570   -0.5720 hn        1 MOL      0.254971
     77 H33         7.4050   -3.4710   -1.7960 h1        1 MOL      0.040158
     78 H34         6.3630   -2.2070   -2.4850 h1        1 MOL      0.040158
     79 N8          4.1680   -3.5900   -1.5280 n         1 MOL     -0.239266
     80 C25         2.9280   -4.2970   -1.6250 c3        1 MOL     -0.210872
     81 C26         1.6750   -3.3730   -1.4490 c         1 MOL      0.759051
     82 O14         1.8050   -2.2910   -0.8590 o         1 MOL     -0.657546
     83 C27         2.7290   -5.3930   -0.5220 c3        1 MOL      0.354026
     84 C28         3.5930   -6.6240   -0.7520 c3        1 MOL     -0.609207
     85 O15         3.1650   -4.8360    0.7490 oh        1 MOL     -0.556385
     86 H35         4.1110   -2.7500   -0.9670 hn        1 MOL      0.202326
     87 H36         2.7680   -4.7060   -2.6230 h1        1 MOL      0.098671
     88 H37         1.6740   -5.6500   -0.4120 h1        1 MOL      0.039458
     89 H38         3.8240   -4.1890    0.5030 ho        1 MOL      0.380608
     90 H39         3.4460   -7.3420    0.0630 hc        1 MOL      0.164827
     91 H40         3.3420   -7.1240   -1.6910 hc        1 MOL      0.164827
     92 H41         4.6610   -6.4280   -0.7950 hc        1 MOL      0.164827
     93 N9          0.5170   -3.7420   -2.0000 n         1 MOL     -0.714083
     94 C29        -0.7300   -2.9350   -1.9570 c3        1 MOL      0.366638
     95 C30        -1.7900   -3.5830   -1.0910 c         1 MOL      0.452419
     96 O16        -1.9050   -4.7800   -1.0010 o         1 MOL     -0.555356
     97 C31        -1.1130   -2.5210   -3.4150 c3        1 MOL     -0.105255
     98 C32        -0.1460   -1.4530   -3.8220 c3        1 MOL      0.100992
     99 C33        -2.6230   -2.1260   -3.5270 c3        1 MOL     -0.095613
    100 C34        -0.4290   -1.1110   -5.2970 c3        1 MOL     -0.360179
    101 H42         0.4210   -4.6750   -2.3830 hn        1 MOL      0.313113
    102 H43        -0.4690   -2.0140   -1.4440 h1        1 MOL     -0.098653
    103 H44        -0.9880   -3.4030   -4.0510 hc        1 MOL      0.035321
    104 H45         0.8520   -1.8270   -3.6090 hc        1 MOL      0.048182
    105 H46        -0.2500   -0.5440   -3.2370 hc        1 MOL      0.048182
    106 H47        -3.3590   -2.8860   -3.2660 hc        1 MOL      0.016707
    107 H48        -2.6680   -1.1960   -2.9580 hc        1 MOL      0.016707
    108 H49        -2.7510   -1.8760   -4.5780 hc        1 MOL      0.016707
    109 H50        -1.2220   -0.3590   -5.3070 hc        1 MOL      0.093855
    110 H51         0.5800   -0.8840   -5.6570 hc        1 MOL      0.093855
    111 H52        -0.8830   -1.9830   -5.7620 hc        1 MOL      0.093855
    112 N10        -2.4980   -2.7160   -0.3570 n         1 MOL      0.017190
    113 C35        -3.6220   -2.9680    0.4480 c3        1 MOL     -0.070349
    114 C36        -4.9710   -2.5560   -0.1650 c         1 MOL      0.240178
    115 O17        -4.9010   -1.8830   -1.1650 o         1 MOL     -0.246896
    116 C37        -3.3730   -2.3760    1.8710 c3        1 MOL      0.098861
    117 C38        -2.2130   -2.9480    2.5970 c3        1 MOL     -0.108226
    118 O18        -3.3480   -0.9310    1.7610 oh        1 MOL     -0.521472
    119 H53        -2.1940   -1.7570   -0.3980 hn        1 MOL     -0.018030
    120 H54        -3.6460   -4.0440    0.6320 h1        1 MOL      0.064904
    121 H55        -4.1450   -2.5680    2.6110 h1        1 MOL      0.034257
    122 H56        -2.4180   -0.7370    1.8270 ho        1 MOL      0.311347
    123 H57        -2.4950   -3.9730    2.8410 hc        1 MOL      0.047146
    124 H58        -1.2870   -2.7970    2.0420 hc        1 MOL      0.047146
    125 H59        -2.1070   -2.4050    3.5450 hc        1 MOL      0.047146
    126 N11        -6.0870   -2.8060    0.5140 n         1 MOL     -0.145617
    127 C39        -7.3430   -2.3280   -0.0510 c3        1 MOL     -0.247726
    128 C40        -7.5700   -0.8120   -0.1650 c         1 MOL      0.451625
    129 O19        -8.2650   -0.3800   -1.0270 o         1 MOL     -0.492860
    130 C41        -8.6540   -2.7930    0.6890 c3        1 MOL      0.245939
    131 C42        -8.9500   -4.2140    0.1750 c3        1 MOL     -0.400686
    132 O20        -8.4660   -2.8950    2.0570 oh        1 MOL     -0.667667
    133 H60        -6.0980   -3.3160    1.3820 hn        1 MOL      0.246435
    134 H61        -7.3780   -2.7790   -1.0450 h1        1 MOL      0.166475
    135 H62        -9.4900   -2.1310    0.4350 h1        1 MOL      0.098891
    136 H63        -9.0290   -3.5400    2.4900 ho        1 MOL      0.442217
    137 H64        -8.7530   -4.4910   -0.8680 hc        1 MOL      0.111887
    138 H65        -8.3040   -4.9250    0.6900 hc        1 MOL      0.111887
    139 H66        -9.9600   -4.5050    0.4550 hc        1 MOL      0.111887
    140 N12        -6.9020   -0.0620    0.7180 n         1 MOL     -0.265401
    141 C43        -6.9140    1.4060    0.7860 c3        1 MOL     -0.163454
    142 C44        -6.0520    1.9370   -0.3620 c         1 MOL      0.413217
    143 O21        -6.4890    2.8120   -1.1360 o         1 MOL     -0.485401
    144 C45        -6.3890    1.9200    2.1180 c3        1 MOL      0.057278
    145 C46        -7.3840    1.8490    3.2260 c3        1 MOL      0.126868
    146 C47        -6.8490    2.6410    4.4220 c3        1 MOL     -0.066207
    147 C48        -7.9340    2.9250    5.4680 c3        1 MOL      0.102912
    148 N13        -8.5650    1.8150    6.1270 n4        1 MOL     -0.285069
    149 H67        -6.2260   -0.5780    1.2630 hn        1 MOL      0.252202
    150 H68        -7.9200    1.7910    0.6420 h1        1 MOL      0.137251
    151 H69        -5.8740    2.8810    2.0990 hc        1 MOL      0.014754
    152 H70        -5.5930    1.2280    2.3940 hc        1 MOL      0.014754
    153 H71        -7.4780    0.8210    3.5670 hc        1 MOL     -0.037696
    154 H72        -8.3720    2.2060    2.9560 hc        1 MOL     -0.037696
    155 H73        -6.6090    3.6680    4.1510 hc        1 MOL      0.051227
    156 H74        -6.0170    2.1190    4.9050 hc        1 MOL      0.051227
    157 H75        -8.7260    3.4890    4.9830 hx        1 MOL      0.056767
    158 H76        -7.4980    3.5830    6.2220 hx        1 MOL      0.056767
    159 H77        -9.2280    1.3780    5.5160 hn        1 MOL      0.294176
    160 H78        -7.9330    1.0680    6.3950 hn        1 MOL      0.294176
    161 H79        -9.0710    2.1140    6.9500 hn        1 MOL      0.294176
    162 N14        -4.8520    1.3850   -0.4710 n         1 MOL     -0.215646
    163 C49        -3.9510    1.6200   -1.6380 c3        1 MOL     -0.144026
    164 C50        -4.5850    1.1960   -2.9740 c         1 MOL      0.390883
    165 O22        -4.6270    1.9760   -3.9180 o         1 MOL     -0.550587
    166 C51        -2.5730    0.9810   -1.3980 c3        1 MOL     -0.046450
    167 C52        -1.8110    1.6120   -0.2810 c3        1 MOL      0.011771
    168 C53        -0.6880    0.8110    0.2150 c         1 MOL      0.552172
    169 O23         0.4200    1.3370    0.2770 o         1 MOL     -0.580675
    170 O24        -0.7650   -0.3180    0.7620 o         1 MOL     -0.580675
    171 H80        -4.5650    0.6180    0.1190 hn        1 MOL      0.159707
    172 H81        -3.7600    2.6930   -1.7120 h1        1 MOL      0.112014
    173 H82        -2.0280    0.9930   -2.3440 hc        1 MOL      0.103368
    174 H83        -2.7770   -0.0650   -1.1680 hc        1 MOL      0.103368
    175 H84        -2.4910    1.6720    0.5650 hc        1 MOL     -0.009214
    176 H85        -1.5060    2.5940   -0.6430 hc        1 MOL     -0.009214
    177 N15        -5.3100    0.0910   -3.0340 n         1 MOL      0.105457
    178 C54        -6.0570   -0.3770   -4.2310 c3        1 MOL     -0.274562
    179 H86        -5.3600   -0.5500   -5.0500 h1        1 MOL      0.098347
    180 H87        -6.5770   -1.3060   -3.9950 h1        1 MOL      0.098347
    181 H88        -6.7830    0.3810   -4.5250 h1        1 MOL      0.098347
    182 H89        -5.2120   -0.6260   -2.3240 hn        1 MOL     -0.003612
    183 Ca1         1.7310   -0.9140    1.3170 Ca        1 MOL      1.736201
    184 O25         0.0540   -0.5830    3.5020 oh        1 MOL     -0.832444
    185 H90         0.6190    0.0050    4.0040 ho        1 MOL      0.389544
    186 H91        -0.8390   -0.3560    3.7820 ho        1 MOL      0.389544
    187 O26         1.1340   -3.4930    2.0440 oh        1 MOL     -0.832444
    188 H92         1.0150   -3.8240    2.9340 ho        1 MOL      0.389544
    189 H93         1.8070   -4.0690    1.6620 ho        1 MOL      0.389544
@<TRIPOS>BOND
     1    1    2 1   
     2    1    4 1   
     3    1    5 1   
     4    1    6 1   
     5    2    3 2   
     6    2    7 1   
     7    7    8 1   
     8    7   15 1   
     9    8    9 1   
    10    8   11 1   
    11    8   16 1   
    12    9   10 2   
    13    9   19 1   
    14   11   12 1   
    15   11   17 1   
    16   11   18 1   
    17   12   13 1   
    18   12   14 1   
    19   19   20 1   
    20   19   28 1   
    21   20   21 1   
    22   20   23 1   
    23   20   29 1   
    24   21   22 2   
    25   21   41 1   
    26   23   24 1   
    27   23   30 1   
    28   23   31 1   
    29   24   25 1   
    30   24   32 1   
    31   24   33 1   
    32   25   26 1   
    33   25   34 1   
    34   25   35 1   
    35   26   27 1   
    36   26   36 1   
    37   26   37 1   
    38   27   38 1   
    39   27   39 1   
    40   27   40 1   
    41   41   42 1   
    42   41   49 1   
    43   42   43 1   
    44   42   45 1   
    45   42   50 1   
    46   43   44 2   
    47   43   53 1   
    48   45   46 1   
    49   45   51 1   
    50   45   52 1   
    51   46   47 1   
    52   46   48 1   
    53   53   54 1   
    54   53   57 1   
    55   54   55 1   
    56   54   58 1   
    57   54   59 1   
    58   55   56 2   
    59   55   60 1   
    60   60   61 1   
    61   60   68 1   
    62   61   62 1   
    63   61   64 1   
    64   61   69 1   
    65   62   63 2   
    66   62   72 1   
    67   64   65 1   
    68   64   70 1   
    69   64   71 1   
    70   65   66 1   
    71   65   67 1   
    72   72   73 1   
    73   72   76 1   
    74   73   74 1   
    75   73   77 1   
    76   73   78 1   
    77   74   75 2   
    78   74   79 1   
    79   79   80 1   
    80   79   86 1   
    81   80   81 1   
    82   80   83 1   
    83   80   87 1   
    84   81   82 2   
    85   81   93 1   
    86   83   84 1   
    87   83   85 1   
    88   83   88 1   
    89   84   90 1   
    90   84   91 1   
    91   84   92 1   
    92   85   89 1   
    93   93   94 1   
    94   93  101 1   
    95   94   95 1   
    96   94   97 1   
    97   94  102 1   
    98   95   96 2   
    99   95  112 1   
   100   97   98 1   
   101   97   99 1   
   102   97  103 1   
   103   98  100 1   
   104   98  104 1   
   105   98  105 1   
   106   99  106 1   
   107   99  107 1   
   108   99  108 1   
   109  100  109 1   
   110  100  110 1   
   111  100  111 1   
   112  112  113 1   
   113  112  119 1   
   114  113  114 1   
   115  113  116 1   
   116  113  120 1   
   117  114  115 2   
   118  114  126 1   
   119  116  117 1   
   120  116  118 1   
   121  116  121 1   
   122  117  123 1   
   123  117  124 1   
   124  117  125 1   
   125  118  122 1   
   126  126  127 1   
   127  126  133 1   
   128  127  128 1   
   129  127  130 1   
   130  127  134 1   
   131  128  129 2   
   132  128  140 1   
   133  130  131 1   
   134  130  132 1   
   135  130  135 1   
   136  131  137 1   
   137  131  138 1   
   138  131  139 1   
   139  132  136 1   
   140  140  141 1   
   141  140  149 1   
   142  141  142 1   
   143  141  144 1   
   144  141  150 1   
   145  142  143 2   
   146  142  162 1   
   147  144  145 1   
   148  144  151 1   
   149  144  152 1   
   150  145  146 1   
   151  145  153 1   
   152  145  154 1   
   153  146  147 1   
   154  146  155 1   
   155  146  156 1   
   156  147  148 1   
   157  147  157 1   
   158  147  158 1   
   159  148  159 1   
   160  148  160 1   
   161  148  161 1   
   162  162  163 1   
   163  162  171 1   
   164  163  164 1   
   165  163  166 1   
   166  163  172 1   
   167  164  165 2   
   168  164  177 1   
   169  166  167 1   
   170  166  173 1   
   171  166  174 1   
   172  167  168 1   
   173  167  175 1   
   174  167  176 1   
   175  168  169 1   
   176  168  170 1   
   177  177  178 1   
   178  177  182 1   
   179  178  179 1   
   180  178  180 1   
   181  178  181 1   
   182  184  185 1   
   183  184  186 1   
   184  187  188 1   
   185  187  189 1   
@<TRIPOS>SUBSTRUCTURE
     1 MOL         1 TEMP              0 ****  ****    0 ROOT
