@<TRIPOS>MOLECULE
MOL
  182   178     1     0     0
SMALL
resp


@<TRIPOS>ATOM
      1 C1         -1.2160   -4.0650    5.3270 c3        1 MOL     -0.404385
      2 C2         -0.7960   -3.5910    3.8940 c         1 MOL      0.672276
      3 O1         -1.6900   -3.5580    3.0290 o         1 MOL     -0.582744
      4 H1         -1.9340   -4.8820    5.2440 hc        1 MOL      0.103215
      5 H2         -0.3350   -4.4090    5.8690 hc        1 MOL      0.103215
      6 H3         -1.6740   -3.2350    5.8660 hc        1 MOL      0.103215
      7 N1          0.4590   -3.1350    3.8600 n         1 MOL     -0.624981
      8 C3          1.1020   -2.6410    2.6180 c3        1 MOL      0.163546
      9 C4          1.2800   -3.9440    1.8180 c         1 MOL      0.451146
     10 O2          2.1920   -4.7110    2.1140 o         1 MOL     -0.501771
     11 C5          2.4780   -2.0780    2.9310 c3        1 MOL     -0.314408
     12 C6          2.9640   -1.3640    1.7280 c         1 MOL      0.875446
     13 O3          2.2970   -1.3760    0.6900 o         1 MOL     -0.722292
     14 O4          3.9860   -0.6760    1.8440 o         1 MOL     -0.722292
     15 H4          1.0630   -3.2170    4.6600 hn        1 MOL      0.355380
     16 H5          0.4240   -1.9580    2.1170 h1        1 MOL      0.011271
     17 H6          3.1470   -2.8220    3.3490 hc        1 MOL      0.094736
     18 H7          2.3050   -1.3100    3.6820 hc        1 MOL      0.094736
     19 N2          0.5160   -4.1120    0.7200 n         1 MOL     -0.191024
     20 C7          0.5780   -5.3630   -0.0980 c3        1 MOL     -0.117168
     21 C8          1.8800   -5.6310   -0.7470 c         1 MOL      0.475567
     22 O5          2.3000   -6.8230   -0.8380 o         1 MOL     -0.550767
     23 C9         -0.5820   -5.3640   -1.0460 c3        1 MOL     -0.025964
     24 C10        -1.8460   -5.5020   -0.2610 c3        1 MOL      0.022761
     25 C11        -3.0140   -5.5190   -1.2250 c3        1 MOL      0.030323
     26 C12        -4.2940   -5.8510   -0.4590 c3        1 MOL      0.162927
     27 N3         -5.3270   -6.2660   -1.4460 n4        1 MOL     -0.472995
     28 H8         -0.0760   -3.3540    0.4390 hn        1 MOL      0.231066
     29 H9          0.3730   -6.2070    0.5620 h1        1 MOL      0.101850
     30 H10        -0.5670   -6.1820   -1.7580 hc        1 MOL      0.016810
     31 H11        -0.5860   -4.4300   -1.6050 hc        1 MOL      0.016810
     32 H12        -1.9650   -4.6810    0.4410 hc        1 MOL      0.021343
     33 H13        -1.8300   -6.4670    0.2540 hc        1 MOL      0.021343
     34 H14        -2.7620   -6.3470   -1.8960 hc        1 MOL     -0.000126
     35 H15        -3.0990   -4.5880   -1.7950 hc        1 MOL     -0.000126
     36 H16        -4.7380   -4.9940    0.0530 hx        1 MOL      0.057952
     37 H17        -4.0720   -6.6380    0.2540 hx        1 MOL      0.057952
     38 H18        -5.6140   -5.5320   -2.0700 hn        1 MOL      0.345528
     39 H19        -5.0160   -7.1040   -1.9250 hn        1 MOL      0.345528
     40 H20        -6.1860   -6.5540   -0.9870 hn        1 MOL      0.345528
     41 N4          2.5650   -4.5670   -1.1630 n         1 MOL     -0.302928
     42 C13         3.9050   -4.7200   -1.7910 c3        1 MOL      0.088561
     43 C14         5.0590   -4.4510   -0.8640 c         1 MOL      0.439124
     44 O6          6.1630   -4.9240   -1.0490 o         1 MOL     -0.526227
     45 C15         4.0590   -3.8740   -3.0670 c3        1 MOL     -0.318755
     46 C16         3.6010   -2.3920   -2.9250 c         1 MOL      0.862301
     47 O7          2.7270   -2.1110   -2.1240 o         1 MOL     -0.757393
     48 O8          4.0950   -1.5090   -3.6890 o         1 MOL     -0.757393
     49 H21         2.2910   -3.6180   -0.9500 hn        1 MOL      0.195592
     50 H22         4.0350   -5.7430   -2.1480 h1        1 MOL      0.087627
     51 H23         3.5260   -4.3350   -3.8900 hc        1 MOL      0.092206
     52 H24         5.1060   -3.9210   -3.3460 hc        1 MOL      0.092206
     53 N5          4.7920   -3.7090    0.2270 n         1 MOL     -0.080483
     54 C17         5.8240   -3.2000    1.1500 c3        1 MOL     -0.054492
     55 C18         6.6440   -2.0630    0.5610 c         1 MOL      0.468031
     56 O9          7.8720   -2.1260    0.6660 o         1 MOL     -0.542267
     57 H25         3.8600   -3.3630    0.3600 hn        1 MOL      0.002575
     58 H26         6.4690   -4.0290    1.4360 h1        1 MOL      0.073440
     59 H27         5.2910   -2.9150    2.0560 h1        1 MOL      0.073440
     60 N6          5.9980   -1.0380   -0.0770 n         1 MOL     -0.067492
     61 C19         6.7000    0.1550   -0.5270 c3        1 MOL      0.066211
     62 C20         6.6990    1.3670    0.4120 c         1 MOL      0.285175
     63 O10         7.3320    2.3160    0.1580 o         1 MOL     -0.432587
     64 C21         6.1330    0.4610   -1.8980 c3        1 MOL     -0.230147
     65 C22         4.8800    1.3050   -1.9430 c         1 MOL      0.816192
     66 N7          4.8030    2.2730   -2.7860 n         1 MOL     -0.666178
     67 O11         3.8490    1.0390   -1.3470 o         1 MOL     -0.777830
     68 H28         4.9880   -1.0060   -0.0470 hn        1 MOL     -0.030149
     69 H29         7.7340   -0.1840   -0.5610 h1        1 MOL      0.095851
     70 H30         5.8630   -0.4940   -2.3490 hc        1 MOL      0.065808
     71 H31         6.8960    1.0820   -2.3680 hc        1 MOL      0.065808
     72 H32         5.5840    2.4850   -3.3970 hn        1 MOL      0.321972
     73 H33         3.9000    2.6860   -2.9700 hn        1 MOL      0.321972
     74 N8          5.9770    1.3770    1.5570 n         1 MOL     -0.190351
     75 C23         5.7310    2.5100    2.4200 c3        1 MOL     -0.103659
     76 C24         4.4320    3.2870    2.1170 c         1 MOL      0.490326
     77 O12         4.2890    4.4260    2.6390 o         1 MOL     -0.545462
     78 H34         5.4930    0.5260    1.8090 hn        1 MOL      0.195777
     79 H35         6.6250    3.1230    2.4440 h1        1 MOL      0.093817
     80 H36         5.6530    2.1120    3.4320 h1        1 MOL      0.093817
     81 N9          3.4600    2.7710    1.3180 n         1 MOL     -0.347289
     82 C25         2.1580    3.4840    1.1070 c3        1 MOL      0.337989
     83 C26         0.9860    2.5170    1.1270 c         1 MOL      0.172208
     84 O13         1.1080    1.3990    0.6010 o         1 MOL     -0.543099
     85 C27         2.2150    4.2880   -0.1780 c3        1 MOL     -0.071615
     86 C28         3.3420    5.2220   -0.2870 ca        1 MOL      0.122538
     87 C29         4.6990    4.8620   -0.5150 ca        1 MOL     -0.239948
     88 C30         3.0320    6.6010   -0.1640 ca        1 MOL     -0.239948
     89 C31         5.7200    5.8760   -0.6460 ca        1 MOL     -0.234042
     90 C32         4.0410    7.6090   -0.1860 ca        1 MOL     -0.234042
     91 C33         5.3960    7.2200   -0.4260 ca        1 MOL      0.352331
     92 O14         6.3880    8.1320   -0.4100 oh        1 MOL     -0.485320
     93 H37         3.6400    1.8380    0.9890 hn        1 MOL      0.287533
     94 H38         2.0540    4.1540    1.9610 h1        1 MOL     -0.010676
     95 H39         1.2690    4.8070   -0.3190 hc        1 MOL      0.017317
     96 H40         2.3880    3.5810   -0.9970 hc        1 MOL      0.017317
     97 H41         4.9420    3.8090   -0.5580 ha        1 MOL      0.138854
     98 H42         2.0270    6.8510    0.1260 ha        1 MOL      0.138854
     99 H43         6.7400    5.5690   -0.7660 ha        1 MOL      0.136934
    100 H44         3.7280    8.6330   -0.0400 ha        1 MOL      0.136934
    101 H45         6.1370    9.0390   -0.2140 ho        1 MOL      0.359889
    102 N10        -0.2050    3.0230    1.4850 n         1 MOL     -0.126955
    103 C34        -1.4930    2.3570    1.3350 c3        1 MOL     -0.616413
    104 C35        -2.4750    3.3300    0.6170 c         1 MOL      0.652324
    105 O15        -2.7490    4.4090    1.1010 o         1 MOL     -0.524844
    106 C36        -1.9840    1.5670    2.5670 c3        1 MOL      0.392097
    107 C37        -2.2280    2.5890    3.7120 c3        1 MOL     -0.172036
    108 C38        -1.0980    0.4320    2.9850 c3        1 MOL     -0.558620
    109 C39        -2.7280    2.0280    5.0130 c3        1 MOL     -0.176908
    110 H46        -0.2620    3.9300    1.9360 hn        1 MOL      0.258781
    111 H47        -1.2960    1.5830    0.5830 h1        1 MOL      0.332332
    112 H48        -2.9170    1.1940    2.1570 hc        1 MOL     -0.122433
    113 H49        -3.0330    3.2360    3.3850 hc        1 MOL      0.082861
    114 H50        -1.3010    3.1340    3.9160 hc        1 MOL      0.082861
    115 H51        -0.9250   -0.1260    2.0660 hc        1 MOL      0.180861
    116 H52        -0.2190    0.8910    3.4460 hc        1 MOL      0.180861
    117 H53        -1.6350   -0.2080    3.6750 hc        1 MOL      0.180861
    118 H54        -1.8720    1.5340    5.4670 hc        1 MOL      0.047082
    119 H55        -3.0440    2.8360    5.6700 hc        1 MOL      0.047082
    120 H56        -3.4930    1.2780    4.8100 hc        1 MOL      0.047082
    121 N11        -2.8100    2.9250   -0.6170 n         1 MOL     -0.387593
    122 C40        -3.8810    3.4640   -1.3330 c3        1 MOL      0.119736
    123 C41        -5.2200    3.2930   -0.5050 c         1 MOL      0.224484
    124 O16        -5.3050    2.4600    0.4010 o         1 MOL     -0.251737
    125 C42        -4.0700    2.7550   -2.6500 c3        1 MOL     -0.343466
    126 O17        -4.2220    1.3280   -2.4980 oh        1 MOL     -0.288244
    127 H57        -2.5570    1.9660   -0.8020 hn        1 MOL      0.174948
    128 H58        -3.7340    4.5240   -1.5260 h1        1 MOL      0.075656
    129 H59        -3.2670    3.0560   -3.3270 h1        1 MOL      0.149695
    130 H60        -4.9000    3.2420   -3.1430 h1        1 MOL      0.149695
    131 H61        -3.8570    0.8530   -3.2440 ho        1 MOL      0.364138
    132 N12        -6.3210    3.8210   -0.9850 n         1 MOL     -0.225777
    133 C43        -7.6300    3.6300   -0.3580 c3        1 MOL      0.029498
    134 C44        -8.2050    2.2360   -0.7080 c         1 MOL      0.460658
    135 O18        -9.0620    1.6420   -0.0150 o         1 MOL     -0.514512
    136 C45        -8.6170    4.7530   -0.6750 c3        1 MOL     -0.276999
    137 H62        -6.3070    4.5710   -1.6690 hn        1 MOL      0.251156
    138 H63        -7.4830    3.6020    0.7250 h1        1 MOL      0.112334
    139 H64        -9.6280    4.6590   -0.2740 hc        1 MOL      0.095058
    140 H65        -8.1770    5.6900   -0.3230 hc        1 MOL      0.095058
    141 H66        -8.6370    4.9130   -1.7470 hc        1 MOL      0.095058
    142 N13        -7.8020    1.6800   -1.8390 n         1 MOL     -0.341513
    143 C46        -8.0720    0.3050   -2.1900 c3        1 MOL      0.129604
    144 C47        -7.3330   -0.7270   -1.2670 c         1 MOL      0.276320
    145 O19        -7.7670   -1.8420   -1.1080 o         1 MOL     -0.515299
    146 C48        -7.5870    0.0530   -3.6180 c3        1 MOL     -0.253780
    147 H67        -7.0950    2.1990   -2.3400 hn        1 MOL      0.217874
    148 H68        -9.1510    0.1530   -2.1990 h1        1 MOL      0.105834
    149 H69        -8.2640    0.5110   -4.3250 hc        1 MOL      0.071119
    150 H70        -6.5230    0.3140   -3.6620 hc        1 MOL      0.071119
    151 H71        -7.6330   -1.0300   -3.7780 hc        1 MOL      0.071119
    152 N14        -6.1700   -0.3770   -0.7120 n         1 MOL      0.203584
    153 C49        -5.3840   -1.0450    0.3150 c3        1 MOL      0.000095
    154 C50        -5.9640   -0.9700    1.7430 c         1 MOL      0.371916
    155 O20        -6.2210   -1.9880    2.3980 o         1 MOL     -0.533995
    156 C51        -3.9870   -0.6290    0.2920 c3        1 MOL      0.010079
    157 C52        -3.1240   -1.3310   -0.8090 c3        1 MOL     -0.422723
    158 C53        -1.7570   -0.7220   -0.8980 c         1 MOL      1.027865
    159 O21        -0.7800   -1.4200   -0.5900 o         1 MOL     -0.805567
    160 O22        -1.5000    0.4260   -1.2820 o         1 MOL     -0.805567
    161 H72        -5.8440    0.5290   -1.0090 hn        1 MOL     -0.204798
    162 H73        -5.3880   -2.0850    0.0120 h1        1 MOL      0.048792
    163 H74        -3.4600   -0.9400    1.1930 hc        1 MOL      0.087172
    164 H75        -3.8770    0.4510    0.1950 hc        1 MOL      0.087172
    165 H76        -3.5780   -1.1610   -1.7820 hc        1 MOL      0.045604
    166 H77        -3.0380   -2.3610   -0.4600 hc        1 MOL      0.045604
    167 N15        -6.5010    0.1970    2.0560 n         1 MOL     -0.018675
    168 C54        -7.4680    0.3540    3.1410 c3        1 MOL     -0.338615
    169 H78        -7.9510   -0.6030    3.3370 h1        1 MOL      0.128063
    170 H79        -6.9530    0.6920    4.0410 h1        1 MOL      0.128063
    171 H80        -8.2210    1.0880    2.8560 h1        1 MOL      0.128063
    172 H81        -6.2620    1.0280    1.5400 hn        1 MOL      0.088936
    173 Ca1         1.2410   -0.1120   -1.4210 Ca        1 MOL      1.800679
    174 O23         0.3160   -1.3170   -3.6980 oh        1 MOL     -0.815181
    175 H82         0.9400   -2.0130   -3.8900 ho        1 MOL      0.396416
    176 H83        -0.5370   -1.7210   -3.8260 ho        1 MOL      0.396416
    177 O24        -0.0330    2.1500   -2.5640 oh        1 MOL     -0.815181
    178 H84        -0.2990    3.0470   -2.7570 ho        1 MOL      0.396416
    179 H85        -0.7870    1.7780   -2.0950 ho        1 MOL      0.396416
    180 O25         2.3970    0.6160   -3.8770 oh        1 MOL     -0.815181
    181 H86         3.0780   -0.0590   -3.9560 ho        1 MOL      0.396416
    182 H87         2.6600    1.2970   -4.4930 ho        1 MOL      0.396416
@<TRIPOS>BOND
     1    1    2 1   
     2    1    4 1   
     3    1    5 1   
     4    1    6 1   
     5    2    3 2   
     6    2    7 1   
     7    7    8 1   
     8    7   15 1   
     9    8    9 1   
    10    8   11 1   
    11    8   16 1   
    12    9   10 2   
    13    9   19 1   
    14   11   12 1   
    15   11   17 1   
    16   11   18 1   
    17   12   13 1   
    18   12   14 1   
    19   19   20 1   
    20   19   28 1   
    21   20   21 1   
    22   20   23 1   
    23   20   29 1   
    24   21   22 2   
    25   21   41 1   
    26   23   24 1   
    27   23   30 1   
    28   23   31 1   
    29   24   25 1   
    30   24   32 1   
    31   24   33 1   
    32   25   26 1   
    33   25   34 1   
    34   25   35 1   
    35   26   27 1   
    36   26   36 1   
    37   26   37 1   
    38   27   38 1   
    39   27   39 1   
    40   27   40 1   
    41   41   42 1   
    42   41   49 1   
    43   42   43 1   
    44   42   45 1   
    45   42   50 1   
    46   43   44 2   
    47   43   53 1   
    48   45   46 1   
    49   45   51 1   
    50   45   52 1   
    51   46   47 1   
    52   46   48 1   
    53   53   54 1   
    54   53   57 1   
    55   54   55 1   
    56   54   58 1   
    57   54   59 1   
    58   55   56 2   
    59   55   60 1   
    60   60   61 1   
    61   60   68 1   
    62   61   62 1   
    63   61   64 1   
    64   61   69 1   
    65   62   63 2   
    66   62   74 1   
    67   64   65 1   
    68   64   70 1   
    69   64   71 1   
    70   65   66 1   
    71   65   67 2   
    72   66   72 1   
    73   66   73 1   
    74   74   75 1   
    75   74   78 1   
    76   75   76 1   
    77   75   79 1   
    78   75   80 1   
    79   76   77 2   
    80   76   81 1   
    81   81   82 1   
    82   81   93 1   
    83   82   83 1   
    84   82   85 1   
    85   82   94 1   
    86   83   84 2   
    87   83  102 1   
    88   85   86 1   
    89   85   95 1   
    90   85   96 1   
    91   86   87 ar  
    92   86   88 ar  
    93   87   89 ar  
    94   87   97 1   
    95   88   90 ar  
    96   88   98 1   
    97   89   91 ar  
    98   89   99 1   
    99   90   91 ar  
   100   90  100 1   
   101   91   92 1   
   102   92  101 1   
   103  102  103 1   
   104  102  110 1   
   105  103  104 1   
   106  103  106 1   
   107  103  111 1   
   108  104  105 2   
   109  104  121 1   
   110  106  107 1   
   111  106  108 1   
   112  106  112 1   
   113  107  109 1   
   114  107  113 1   
   115  107  114 1   
   116  108  115 1   
   117  108  116 1   
   118  108  117 1   
   119  109  118 1   
   120  109  119 1   
   121  109  120 1   
   122  121  122 1   
   123  121  127 1   
   124  122  123 1   
   125  122  125 1   
   126  122  128 1   
   127  123  124 2   
   128  123  132 1   
   129  125  126 1   
   130  125  129 1   
   131  125  130 1   
   132  126  131 1   
   133  132  133 1   
   134  132  137 1   
   135  133  134 1   
   136  133  136 1   
   137  133  138 1   
   138  134  135 2   
   139  134  142 1   
   140  136  139 1   
   141  136  140 1   
   142  136  141 1   
   143  142  143 1   
   144  142  147 1   
   145  143  144 1   
   146  143  146 1   
   147  143  148 1   
   148  144  145 2   
   149  144  152 1   
   150  146  149 1   
   151  146  150 1   
   152  146  151 1   
   153  152  153 1   
   154  152  161 1   
   155  153  154 1   
   156  153  156 1   
   157  153  162 1   
   158  154  155 2   
   159  154  167 1   
   160  156  157 1   
   161  156  163 1   
   162  156  164 1   
   163  157  158 1   
   164  157  165 1   
   165  157  166 1   
   166  158  159 1   
   167  158  160 1   
   168  167  168 1   
   169  167  172 1   
   170  168  169 1   
   171  168  170 1   
   172  168  171 1   
   173  174  175 1   
   174  174  176 1   
   175  177  178 1   
   176  177  179 1   
   177  180  181 1   
   178  180  182 1   
@<TRIPOS>SUBSTRUCTURE
     1 MOL         1 TEMP              0 ****  ****    0 ROOT
