@<TRIPOS>MOLECULE
MOL
  179   176     1     0     0
SMALL
resp


@<TRIPOS>ATOM
      1 C1          2.0780    3.3550    4.3550 c3        1 MOL     -0.457065
      2 C2          1.1440    3.1340    3.1390 c         1 MOL      0.708708
      3 O1          1.7080    2.8980    2.0770 o         1 MOL     -0.581485
      4 H1          2.8620    2.5970    4.3530 hc        1 MOL      0.113359
      5 H2          2.5300    4.3440    4.2910 hc        1 MOL      0.113359
      6 H3          1.5010    3.2770    5.2760 hc        1 MOL      0.113359
      7 N1         -0.1760    3.2180    3.3190 n         1 MOL     -0.727553
      8 C3         -1.1530    2.9380    2.2870 c3        1 MOL      0.216312
      9 C4         -1.7540    4.2630    1.6640 c         1 MOL      0.493892
     10 O2         -2.8840    4.6400    1.9560 o         1 MOL     -0.514863
     11 C5         -2.2190    1.8300    2.6530 c3        1 MOL     -0.217888
     12 C6         -3.0580    1.4280    1.4610 c         1 MOL      0.680834
     13 O3         -4.2340    1.0000    1.7280 o         1 MOL     -0.680336
     14 O4         -2.5650    1.3780    0.3060 o         1 MOL     -0.680336
     15 H4         -0.5400    3.2870    4.2590 hn        1 MOL      0.378963
     16 H5         -0.6610    2.4900    1.4310 h1        1 MOL     -0.038957
     17 H6         -2.8060    2.0570    3.5420 hc        1 MOL      0.067918
     18 H7         -1.6860    0.9120    2.9240 hc        1 MOL      0.067918
     19 N2         -0.9690    4.9630    0.8780 n         1 MOL     -0.357394
     20 C7         -1.1760    6.2710    0.2550 c3        1 MOL     -0.040392
     21 C8         -2.2540    6.1910   -0.9190 c         1 MOL      0.391925
     22 O5         -3.0410    7.0940   -1.1360 o         1 MOL     -0.513626
     23 C9          0.1070    6.9570   -0.1030 c3        1 MOL      0.112222
     24 C10         0.9630    7.3930    1.0540 c3        1 MOL     -0.234615
     25 C11         2.2760    7.9570    0.5370 c3        1 MOL      0.056209
     26 C12         3.3350    8.2120    1.5970 c3        1 MOL     -0.086496
     27 N3          4.0010    6.9890    2.0690 n4        1 MOL     -0.362242
     28 H8         -0.0670    4.5160    0.8070 hn        1 MOL      0.317491
     29 H9         -1.6600    6.9750    0.9360 h1        1 MOL      0.099050
     30 H10        -0.0340    7.7990   -0.7820 hc        1 MOL      0.018819
     31 H11         0.6700    6.2360   -0.6920 hc        1 MOL      0.018819
     32 H12         1.1770    6.6180    1.7910 hc        1 MOL      0.062840
     33 H13         0.3760    8.2200    1.4660 hc        1 MOL      0.062840
     34 H14         2.1870    8.9080    0.0090 hc        1 MOL      0.048688
     35 H15         2.6990    7.3640   -0.2820 hc        1 MOL      0.048688
     36 H16         3.0580    8.8300    2.4480 hx        1 MOL      0.116734
     37 H17         4.1060    8.8010    1.0960 hx        1 MOL      0.116734
     38 H18         4.9360    7.1980    2.3610 hn        1 MOL      0.339591
     39 H19         3.4650    6.5580    2.8190 hn        1 MOL      0.339591
     40 H20         3.9170    6.2330    1.4000 hn        1 MOL      0.339591
     41 N4         -2.3090    5.0420   -1.5870 n         1 MOL     -0.262745
     42 C13        -3.3270    4.7150   -2.6590 c3        1 MOL     -0.060882
     43 C14        -4.6270    4.1940   -1.9920 c         1 MOL      0.492142
     44 O6         -5.6960    4.2470   -2.6070 o         1 MOL     -0.543716
     45 C15        -2.8540    3.7860   -3.7780 c3        1 MOL     -0.150845
     46 C16        -2.2510    2.5530   -3.2750 c         1 MOL      0.681939
     47 O7         -1.2550    2.5540   -2.5480 o         1 MOL     -0.718268
     48 O8         -2.7960    1.4440   -3.4800 o         1 MOL     -0.718268
     49 H21        -1.6690    4.3030   -1.3570 hn        1 MOL      0.176667
     50 H22        -3.6770    5.5910   -3.1990 h1        1 MOL      0.123769
     51 H23        -2.1180    4.2350   -4.4290 hc        1 MOL      0.065026
     52 H24        -3.6630    3.6710   -4.5030 hc        1 MOL      0.065026
     53 N5         -4.6180    3.7270   -0.6900 n         1 MOL     -0.109470
     54 C17        -5.8670    3.4690    0.0380 c3        1 MOL     -0.270617
     55 C18        -6.4860    2.0360    0.0200 c         1 MOL      0.640817
     56 O9         -7.5410    1.8510    0.5900 o         1 MOL     -0.593672
     57 H25        -3.7520    3.4060   -0.2850 hn        1 MOL      0.168551
     58 H26        -6.6720    4.0770   -0.3740 h1        1 MOL      0.121049
     59 H27        -5.8390    3.7390    1.0920 h1        1 MOL      0.121049
     60 N6         -5.8820    1.0840   -0.6660 n         1 MOL     -0.317223
     61 C19        -6.6860   -0.1250   -1.0860 c3        1 MOL     -0.103393
     62 C20        -6.7680   -1.2810   -0.0530 c         1 MOL      0.367218
     63 O10        -7.3980   -2.2720   -0.3960 o         1 MOL     -0.536304
     64 C21        -5.9750   -0.6120   -2.4070 c3        1 MOL     -0.098098
     65 C22        -4.6540   -1.3190   -2.1920 c         1 MOL      0.570024
     66 N7         -4.6370   -2.5220   -2.7860 n         1 MOL     -0.658207
     67 O11        -3.7510   -0.9190   -1.4160 o         1 MOL     -0.561148
     68 H28        -4.9050    1.1740   -0.9040 hn        1 MOL      0.154499
     69 H29        -7.6660    0.2340   -1.3810 h1        1 MOL      0.152035
     70 H30        -5.8380    0.1840   -3.1380 hc        1 MOL      0.068459
     71 H31        -6.7350   -1.2350   -2.8760 hc        1 MOL      0.068459
     72 H32        -5.4550   -2.7090   -3.3540 hn        1 MOL      0.326927
     73 H33        -3.8920   -3.1620   -2.5790 hn        1 MOL      0.326927
     74 N8         -6.1020   -1.1850    1.0480 n         1 MOL     -0.012682
     75 C23        -5.9650   -2.0630    2.2410 c3        1 MOL     -0.512837
     76 C24        -4.6830   -2.8500    2.3700 c         1 MOL      0.710987
     77 O12        -4.4320   -3.5200    3.3640 o         1 MOL     -0.603884
     78 H34        -5.5360   -0.3550    1.0600 hn        1 MOL      0.240348
     79 H35        -6.7090   -2.8490    2.1250 h1        1 MOL      0.202090
     80 H36        -6.0610   -1.4180    3.1160 h1        1 MOL      0.202090
     81 N9         -3.7390   -2.8210    1.3920 n         1 MOL     -0.305909
     82 C25        -2.5200   -3.6180    1.4310 c3        1 MOL      0.182563
     83 C26        -1.3080   -2.7960    1.1020 c         1 MOL      0.357705
     84 O13        -1.3800   -1.7890    0.3140 o         1 MOL     -0.529165
     85 C27        -2.5510   -4.6960    0.3260 c3        1 MOL     -0.057334
     86 C28        -3.6530   -5.7110    0.4360 ca        1 MOL      0.026173
     87 C29        -4.8380   -5.5700   -0.3020 ca        1 MOL     -0.185731
     88 C30        -3.3720   -6.8300    1.2230 ca        1 MOL     -0.185731
     89 C31        -5.8140   -6.4910   -0.2070 ca        1 MOL     -0.195918
     90 C32        -4.3720   -7.8100    1.2670 ca        1 MOL     -0.195918
     91 C33        -5.6170   -7.6040    0.6000 ca        1 MOL      0.303361
     92 O14        -6.6420   -8.5190    0.5860 oh        1 MOL     -0.473233
     93 H37        -3.8940   -2.2060    0.6160 hn        1 MOL      0.165966
     94 H38        -2.3660   -4.0880    2.3950 h1        1 MOL      0.061879
     95 H39        -1.5620   -5.1520    0.2600 hc        1 MOL      0.015697
     96 H40        -2.6560   -4.0750   -0.5640 hc        1 MOL      0.015697
     97 H41        -5.0110   -4.6930   -0.9140 ha        1 MOL      0.142920
     98 H42        -2.4150   -6.9000    1.7080 ha        1 MOL      0.142920
     99 H43        -6.5550   -6.4000   -0.9720 ha        1 MOL      0.127969
    100 H44        -4.2430   -8.8150    1.6570 ha        1 MOL      0.127969
    101 H45        -6.5010   -9.3000    1.1400 ho        1 MOL      0.353579
    102 N10        -0.0920   -3.1210    1.6510 n         1 MOL     -0.309269
    103 C34         1.2420   -2.5720    1.2670 c3        1 MOL     -0.246928
    104 C35         2.2700   -3.6380    0.8250 c         1 MOL      0.658048
    105 O15         2.1950   -4.8280    1.1960 o         1 MOL     -0.561819
    106 C36         1.7760   -1.6270    2.3210 c3        1 MOL      0.283368
    107 C37         2.0590   -2.3320    3.6670 c3        1 MOL     -0.197430
    108 C38         0.7710   -0.4890    2.4470 c3        1 MOL     -0.296462
    109 C39         2.7830   -1.4630    4.7500 c3        1 MOL     -0.151118
    110 H46        -0.0470   -3.8120    2.3880 hn        1 MOL      0.235663
    111 H47         1.1140   -1.9020    0.4120 h1        1 MOL      0.130065
    112 H48         2.7100   -1.1790    1.9620 hc        1 MOL     -0.098450
    113 H49         2.7390   -3.1310    3.3970 hc        1 MOL      0.077568
    114 H50         1.1580   -2.6900    4.1520 hc        1 MOL      0.077568
    115 H51        -0.2050   -0.8290    2.7980 hc        1 MOL      0.108927
    116 H52         1.1390    0.2190    3.2000 hc        1 MOL      0.108927
    117 H53         0.7380    0.0760    1.5110 hc        1 MOL      0.108927
    118 H54         2.0890   -0.7900    5.2520 hc        1 MOL      0.046529
    119 H55         3.1810   -2.0850    5.5500 hc        1 MOL      0.046529
    120 H56         3.5540   -0.8350    4.3160 hc        1 MOL      0.046529
    121 N11         3.2140   -3.2370   -0.0160 n         1 MOL     -0.481621
    122 C40         4.3450   -4.0550   -0.4720 c3        1 MOL      0.107316
    123 C41         5.7130   -3.4040   -0.0810 c         1 MOL      0.539627
    124 O16         5.7430   -2.3350    0.4950 o         1 MOL     -0.406381
    125 C42         4.2890   -4.3090   -2.0270 c3        1 MOL     -0.150057
    126 O17         4.6650   -3.1380   -2.7120 oh        1 MOL     -0.584099
    127 H57         3.2290   -2.2480   -0.2230 hn        1 MOL      0.275729
    128 H58         4.2550   -5.0850   -0.1220 h1        1 MOL      0.038497
    129 H59         3.2730   -4.6450   -2.2570 h1        1 MOL      0.134503
    130 H60         4.9470   -5.1250   -2.3140 h1        1 MOL      0.134503
    131 H61         3.8360   -2.7950   -3.0520 ho        1 MOL      0.409188
    132 N12         6.7670   -4.1660   -0.4160 n         1 MOL     -0.638452
    133 C43         8.1910   -3.8260   -0.3840 c3        1 MOL      0.393190
    134 C44         8.3120   -2.3100   -0.6880 c         1 MOL      0.377494
    135 O18         8.7920   -1.5850    0.1950 o         1 MOL     -0.515968
    136 C45         8.8930   -4.7720   -1.3180 c3        1 MOL     -0.435718
    137 H62         6.5690   -4.9780   -0.9760 hn        1 MOL      0.322182
    138 H63         8.6510   -4.0190    0.5870 h1        1 MOL      0.039271
    139 H64         9.9620   -4.5590   -1.3700 hc        1 MOL      0.116935
    140 H65         8.8660   -5.7950   -0.9660 hc        1 MOL      0.116935
    141 H66         8.3130   -4.8100   -2.2420 hc        1 MOL      0.116935
    142 N13         7.9660   -1.8820   -1.8760 n         1 MOL     -0.327439
    143 C46         8.2440   -0.4290   -2.3660 c3        1 MOL     -0.029237
    144 C47         7.4770    0.6410   -1.5980 c         1 MOL      0.503295
    145 O19         8.1020    1.5840   -1.1240 o         1 MOL     -0.486522
    146 C48         8.0870   -0.1400   -3.8760 c3        1 MOL     -0.283131
    147 H67         7.6430   -2.5280   -2.5800 hn        1 MOL      0.268369
    148 H68         9.3120   -0.3530   -2.1560 h1        1 MOL      0.124089
    149 H69         8.2880    0.9190   -3.9780 hc        1 MOL      0.092553
    150 H70         8.8140   -0.7180   -4.4640 hc        1 MOL      0.092553
    151 H71         7.0450   -0.3350   -4.1480 hc        1 MOL      0.092553
    152 N14         6.1360    0.4030   -1.4080 n         1 MOL     -0.395121
    153 C49         5.3840    1.2510   -0.4290 c3        1 MOL     -0.141715
    154 C50         5.8760    1.3110    0.9960 c         1 MOL      0.475453
    155 O20         5.8920    2.4430    1.5420 o         1 MOL     -0.598068
    156 C51         3.8680    0.7620   -0.3540 c3        1 MOL      0.128064
    157 C52         3.1810    0.7920   -1.7130 c3        1 MOL      0.008961
    158 C53         1.6800    0.5050   -1.7440 c         1 MOL      0.767447
    159 O21         0.9390    0.7230   -0.7500 o         1 MOL     -0.758144
    160 O22         1.1360    0.0770   -2.7750 o         1 MOL     -0.758144
    161 H72         5.6760   -0.3900   -1.8260 hn        1 MOL      0.358152
    162 H73         5.3480    2.2620   -0.8380 h1        1 MOL      0.122058
    163 H74         3.3140    1.3480    0.3800 hc        1 MOL      0.001248
    164 H75         3.8750   -0.3030   -0.1330 hc        1 MOL      0.001248
    165 H76         3.7310    0.0980   -2.3460 hc        1 MOL     -0.055364
    166 H77         3.3030    1.7730   -2.1830 hc        1 MOL     -0.055364
    167 N15         6.3970    0.1950    1.5380 n         1 MOL     -0.029555
    168 C54         7.0500    0.1670    2.8390 c3        1 MOL     -0.231272
    169 H78         7.7420   -0.6750    2.8800 h1        1 MOL      0.092727
    170 H79         7.5990    1.0960    2.9910 h1        1 MOL      0.092727
    171 H80         6.2990    0.0560    3.6220 h1        1 MOL      0.092727
    172 H81         6.4290   -0.6590    0.9940 hn        1 MOL      0.109463
    173 Ca1        -1.3360    0.0500   -1.6400 Ca        1 MOL      1.740340
    174 O23        -0.0040   -2.3950   -1.9880 oh        1 MOL     -0.783114
    175 H82        -0.1460   -3.3130   -1.7390 ho        1 MOL      0.378397
    176 H83         0.7680   -2.4180   -2.5500 ho        1 MOL      0.378397
    177 O24        -1.8480   -1.5350   -3.7870 oh        1 MOL     -0.783114
    178 H84        -2.5920   -1.8100   -4.3280 ho        1 MOL      0.378397
    179 H85        -1.3370   -2.3260   -3.6530 ho        1 MOL      0.378397
@<TRIPOS>BOND
     1    1    2 1   
     2    1    4 1   
     3    1    5 1   
     4    1    6 1   
     5    2    3 2   
     6    2    7 1   
     7    7    8 1   
     8    7   15 1   
     9    8    9 1   
    10    8   11 1   
    11    8   16 1   
    12    9   10 2   
    13    9   19 1   
    14   11   12 1   
    15   11   17 1   
    16   11   18 1   
    17   12   13 1   
    18   12   14 1   
    19   19   20 1   
    20   19   28 1   
    21   20   21 1   
    22   20   23 1   
    23   20   29 1   
    24   21   22 2   
    25   21   41 1   
    26   23   24 1   
    27   23   30 1   
    28   23   31 1   
    29   24   25 1   
    30   24   32 1   
    31   24   33 1   
    32   25   26 1   
    33   25   34 1   
    34   25   35 1   
    35   26   27 1   
    36   26   36 1   
    37   26   37 1   
    38   27   38 1   
    39   27   39 1   
    40   27   40 1   
    41   41   42 1   
    42   41   49 1   
    43   42   43 1   
    44   42   45 1   
    45   42   50 1   
    46   43   44 2   
    47   43   53 1   
    48   45   46 1   
    49   45   51 1   
    50   45   52 1   
    51   46   47 1   
    52   46   48 1   
    53   53   54 1   
    54   53   57 1   
    55   54   55 1   
    56   54   58 1   
    57   54   59 1   
    58   55   56 2   
    59   55   60 1   
    60   60   61 1   
    61   60   68 1   
    62   61   62 1   
    63   61   64 1   
    64   61   69 1   
    65   62   63 2   
    66   62   74 1   
    67   64   65 1   
    68   64   70 1   
    69   64   71 1   
    70   65   66 1   
    71   65   67 2   
    72   66   72 1   
    73   66   73 1   
    74   74   75 1   
    75   74   78 1   
    76   75   76 1   
    77   75   79 1   
    78   75   80 1   
    79   76   77 2   
    80   76   81 1   
    81   81   82 1   
    82   81   93 1   
    83   82   83 1   
    84   82   85 1   
    85   82   94 1   
    86   83   84 2   
    87   83  102 1   
    88   85   86 1   
    89   85   95 1   
    90   85   96 1   
    91   86   87 ar  
    92   86   88 ar  
    93   87   89 ar  
    94   87   97 1   
    95   88   90 ar  
    96   88   98 1   
    97   89   91 ar  
    98   89   99 1   
    99   90   91 ar  
   100   90  100 1   
   101   91   92 1   
   102   92  101 1   
   103  102  103 1   
   104  102  110 1   
   105  103  104 1   
   106  103  106 1   
   107  103  111 1   
   108  104  105 2   
   109  104  121 1   
   110  106  107 1   
   111  106  108 1   
   112  106  112 1   
   113  107  109 1   
   114  107  113 1   
   115  107  114 1   
   116  108  115 1   
   117  108  116 1   
   118  108  117 1   
   119  109  118 1   
   120  109  119 1   
   121  109  120 1   
   122  121  122 1   
   123  121  127 1   
   124  122  123 1   
   125  122  125 1   
   126  122  128 1   
   127  123  124 2   
   128  123  132 1   
   129  125  126 1   
   130  125  129 1   
   131  125  130 1   
   132  126  131 1   
   133  132  133 1   
   134  132  137 1   
   135  133  134 1   
   136  133  136 1   
   137  133  138 1   
   138  134  135 2   
   139  134  142 1   
   140  136  139 1   
   141  136  140 1   
   142  136  141 1   
   143  142  143 1   
   144  142  147 1   
   145  143  144 1   
   146  143  146 1   
   147  143  148 1   
   148  144  145 2   
   149  144  152 1   
   150  146  149 1   
   151  146  150 1   
   152  146  151 1   
   153  152  153 1   
   154  152  161 1   
   155  153  154 1   
   156  153  156 1   
   157  153  162 1   
   158  154  155 2   
   159  154  167 1   
   160  156  157 1   
   161  156  163 1   
   162  156  164 1   
   163  157  158 1   
   164  157  165 1   
   165  157  166 1   
   166  158  159 1   
   167  158  160 1   
   168  167  168 1   
   169  167  172 1   
   170  168  169 1   
   171  168  170 1   
   172  168  171 1   
   173  174  175 1   
   174  174  176 1   
   175  177  178 1   
   176  177  179 1   
@<TRIPOS>SUBSTRUCTURE
     1 MOL         1 TEMP              0 ****  ****    0 ROOT
