@<TRIPOS>MOLECULE
MOL
  179   176     1     0     0
SMALL
resp


@<TRIPOS>ATOM
      1 C1          0.8210    4.4400    4.2520 c3        1 MOL     -0.383179
      2 C2          0.1970    3.7090    3.0200 c         1 MOL      0.609491
      3 O1          0.9060    3.5190    2.0140 o         1 MOL     -0.572459
      4 H1          0.0700    5.0830    4.7120 hc        1 MOL      0.104408
      5 H2          1.1610    3.7030    4.9790 hc        1 MOL      0.104408
      6 H3          1.6660    5.0460    3.9250 hc        1 MOL      0.104408
      7 N1         -1.1240    3.3730    2.9990 n         1 MOL     -0.605582
      8 C3         -1.8790    2.6930    1.9600 c3        1 MOL      0.075072
      9 C4         -2.7750    3.6190    1.1120 c         1 MOL      0.623354
     10 O2         -4.0010    3.6830    1.3070 o         1 MOL     -0.489711
     11 C5         -2.6520    1.5510    2.7320 c3        1 MOL     -0.238014
     12 C6         -3.3820    0.6490    1.7570 c         1 MOL      0.663703
     13 O3         -4.5400    0.2200    2.0120 o         1 MOL     -0.670485
     14 O4         -2.7890    0.3360    0.6900 o         1 MOL     -0.670485
     15 H4         -1.6240    3.4050    3.8800 hn        1 MOL      0.339038
     16 H5         -1.1760    2.1980    1.2860 h1        1 MOL      0.010175
     17 H6         -3.4320    1.9760    3.3540 hc        1 MOL      0.079052
     18 H7         -1.9260    1.0040    3.3520 hc        1 MOL      0.079052
     19 N2         -2.1930    4.2720    0.0880 n         1 MOL     -0.611791
     20 C7         -2.8630    5.4740   -0.5720 c3        1 MOL     -0.033167
     21 C8         -4.0820    5.1220   -1.4440 c         1 MOL      0.502636
     22 O5         -4.9210    5.9730   -1.6960 o         1 MOL     -0.546956
     23 C9         -1.7680    6.3070   -1.2110 c3        1 MOL     -0.044882
     24 C10        -0.7740    7.0270   -0.1880 c3        1 MOL      0.019377
     25 C11         0.2850    7.9370   -0.7840 c3        1 MOL     -0.004407
     26 C12         1.0770    8.7890    0.2250 c3        1 MOL     -0.051719
     27 N3          2.1170    8.0090    0.8360 n4        1 MOL     -0.374350
     28 H8         -1.2310    4.0630   -0.1570 hn        1 MOL      0.439456
     29 H9         -3.2730    6.1260    0.1960 h1        1 MOL      0.100087
     30 H10        -2.1510    7.1090   -1.8420 hc        1 MOL      0.040911
     31 H11        -1.2160    5.6330   -1.8630 hc        1 MOL      0.040911
     32 H12        -0.2440    6.2610    0.3710 hc        1 MOL      0.012122
     33 H13        -1.3640    7.7050    0.4340 hc        1 MOL      0.012122
     34 H14        -0.1560    8.7180   -1.3990 hc        1 MOL      0.037874
     35 H15         0.9370    7.3290   -1.4020 hc        1 MOL      0.037874
     36 H16         0.3610    9.1870    0.9530 hx        1 MOL      0.113384
     37 H17         1.5800    9.6020   -0.2960 hx        1 MOL      0.113384
     38 H18         1.8220    7.3170    1.5070 hn        1 MOL      0.339290
     39 H19         2.6000    7.4850    0.1310 hn        1 MOL      0.339290
     40 H20         2.7580    8.6100    1.3340 hn        1 MOL      0.339290
     41 N4         -4.1180    3.8480   -1.7890 n         1 MOL     -0.309294
     42 C13        -5.1390    3.1740   -2.5430 c3        1 MOL      0.172318
     43 C14        -6.2770    2.4640   -1.7980 c         1 MOL      0.356560
     44 O6         -7.3890    2.2870   -2.3040 o         1 MOL     -0.533137
     45 C15        -4.4100    2.1090   -3.3440 c3        1 MOL     -0.474066
     46 C16        -3.3530    1.2680   -2.5200 c         1 MOL      0.826384
     47 O7         -2.3260    1.7780   -1.9770 o         1 MOL     -0.739865
     48 O8         -3.6450    0.0760   -2.3750 o         1 MOL     -0.739865
     49 H21        -3.4420    3.2680   -1.3010 hn        1 MOL      0.235901
     50 H22        -5.6480    3.8780   -3.2030 h1        1 MOL      0.074467
     51 H23        -3.8560    2.5930   -4.1530 hc        1 MOL      0.119301
     52 H24        -5.1920    1.4720   -3.7500 hc        1 MOL      0.119301
     53 N5         -6.0990    2.1490   -0.5100 n         1 MOL     -0.046687
     54 C17        -7.0450    1.5330    0.3890 c3        1 MOL     -0.189227
     55 C18        -7.2640    0.0400    0.3130 c         1 MOL      0.567671
     56 O9         -8.2340   -0.4200    0.8250 o         1 MOL     -0.548446
     57 H25        -5.1890    2.3420   -0.1240 hn        1 MOL      0.071810
     58 H26        -7.9420    2.1440    0.5160 h1        1 MOL      0.104352
     59 H27        -6.5130    1.5260    1.3400 h1        1 MOL      0.104352
     60 N6         -6.3460   -0.6830   -0.3830 n         1 MOL     -0.260061
     61 C19        -6.4930   -2.1070   -0.7070 c3        1 MOL     -0.052600
     62 C20        -6.2790   -3.0150    0.4710 c         1 MOL      0.501328
     63 O10        -6.6840   -4.1400    0.4520 o         1 MOL     -0.541628
     64 C21        -5.6080   -2.4750   -1.9210 c3        1 MOL     -0.262232
     65 C22        -4.1340   -2.7740   -1.7100 c         1 MOL      0.438832
     66 N7         -3.6580   -3.4750   -2.6640 n         1 MOL     -0.496229
     67 O11        -3.3820   -2.2910   -0.8700 o         1 MOL     -0.272590
     68 H28        -5.4550   -0.4090   -0.7700 hn        1 MOL      0.203258
     69 H29        -7.5390   -2.2000   -0.9710 h1        1 MOL      0.103022
     70 H30        -5.8240   -1.7120   -2.6740 hc        1 MOL      0.104745
     71 H31        -6.0680   -3.4220   -2.1930 hc        1 MOL      0.104745
     72 H32        -4.3000   -3.7900   -3.3780 hn        1 MOL      0.265597
     73 H33        -2.6680   -3.6810   -2.6580 hn        1 MOL      0.265597
     74 N8         -5.5780   -2.4970    1.5550 n         1 MOL     -0.316360
     75 C23        -5.2780   -3.1510    2.7840 c3        1 MOL     -0.039220
     76 C24        -3.8070   -3.4670    3.1200 c         1 MOL      0.441080
     77 O12        -3.6370   -3.8850    4.2740 o         1 MOL     -0.549234
     78 H34        -5.2050   -1.5650    1.4260 hn        1 MOL      0.271971
     79 H35        -5.7420   -4.1330    2.7720 h1        1 MOL      0.083143
     80 H36        -5.7330   -2.6550    3.6470 h1        1 MOL      0.083143
     81 N9         -2.8220   -3.3920    2.1730 n         1 MOL     -0.064117
     82 C25        -1.4890   -3.7410    2.4860 c3        1 MOL     -0.024938
     83 C26        -0.4060   -2.8440    1.8000 c         1 MOL      0.706875
     84 O13        -0.7150   -2.0960    0.8550 o         1 MOL     -0.689927
     85 C27        -1.0960   -5.1890    2.2460 c3        1 MOL     -0.125854
     86 C28        -1.1420   -5.6370    0.7990 ca        1 MOL      0.001899
     87 C29        -0.0390   -5.6880   -0.0370 ca        1 MOL     -0.081892
     88 C30        -2.3970   -5.8590    0.0740 ca        1 MOL     -0.081892
     89 C31        -0.0790   -5.8860   -1.4520 ca        1 MOL     -0.338354
     90 C32        -2.4630   -6.1170   -1.3240 ca        1 MOL     -0.338354
     91 C33        -1.2720   -6.1490   -2.0710 ca        1 MOL      0.445297
     92 O14        -1.3180   -6.4140   -3.3710 oh        1 MOL     -0.566406
     93 H37        -2.9400   -2.9670    1.2750 hn        1 MOL      0.000600
     94 H38        -1.2930   -3.4590    3.5250 h1        1 MOL      0.047549
     95 H39        -1.6860   -5.9400    2.7720 hc        1 MOL      0.070978
     96 H40        -0.1170   -5.4180    2.6610 hc        1 MOL      0.070978
     97 H41         0.9470   -5.5190    0.3690 ha        1 MOL      0.120990
     98 H42        -3.3510   -5.7080    0.5560 ha        1 MOL      0.120990
     99 H43         0.8270   -5.9620   -2.0350 ha        1 MOL      0.144448
    100 H44        -3.4150   -6.1510   -1.8330 ha        1 MOL      0.144448
    101 H45        -2.2250   -6.4980   -3.6740 ho        1 MOL      0.414588
    102 N10         0.8350   -2.8040    2.3290 n         1 MOL     -0.548047
    103 C34         1.9830   -2.0110    1.8110 c3        1 MOL      0.029616
    104 C35         3.1160   -2.9730    1.4370 c         1 MOL      0.424493
    105 O15         3.3260   -3.8990    2.2210 o         1 MOL     -0.508934
    106 C36         2.3410   -0.7430    2.6360 c3        1 MOL      0.027454
    107 C37         2.8720   -0.9950    4.0110 c3        1 MOL     -0.037624
    108 C38         1.1140    0.2130    2.6110 c3        1 MOL     -0.636743
    109 C39         3.2480    0.1810    4.9650 c3        1 MOL     -0.227956
    110 H46         0.9720   -3.2750    3.2120 hn        1 MOL      0.324931
    111 H47         1.6670   -1.5100    0.8870 h1        1 MOL      0.127967
    112 H48         3.1990   -0.2530    2.1870 hc        1 MOL      0.025702
    113 H49         3.7470   -1.6450    3.9310 hc        1 MOL      0.048095
    114 H50         2.1680   -1.6310    4.5490 hc        1 MOL      0.048095
    115 H51         0.8640    0.5530    1.6030 hc        1 MOL      0.211574
    116 H52         0.2760   -0.1980    3.1690 hc        1 MOL      0.211574
    117 H53         1.4380    1.1000    3.1610 hc        1 MOL      0.211574
    118 H54         3.7670    0.9990    4.4700 hc        1 MOL      0.065303
    119 H55         2.2970    0.6400    5.2610 hc        1 MOL      0.065303
    120 H56         3.8430   -0.1360    5.8210 hc        1 MOL      0.065303
    121 N11         3.8170   -2.6520    0.3140 n         1 MOL     -0.273132
    122 C40         5.0930   -3.2320   -0.0040 c3        1 MOL      0.171485
    123 C41         6.2810   -2.3130    0.3610 c         1 MOL      0.381187
    124 O16         6.0490   -1.1920    0.8540 o         1 MOL     -0.370096
    125 C42         5.0430   -3.7100   -1.5030 c3        1 MOL     -0.096864
    126 O17         4.8880   -2.5990   -2.3120 oh        1 MOL     -0.474968
    127 H57         3.5930   -1.8100   -0.1970 hn        1 MOL      0.138625
    128 H58         5.2530   -4.1580    0.5550 h1        1 MOL      0.039100
    129 H59         4.2740   -4.4880   -1.5090 h1        1 MOL      0.078045
    130 H60         5.9800   -4.1050   -1.8990 h1        1 MOL      0.078045
    131 H61         4.2190   -2.8370   -2.9540 ho        1 MOL      0.392308
    132 N12         7.5350   -2.7130    0.0090 n         1 MOL     -0.410743
    133 C43         8.6980   -1.8130    0.0390 c3        1 MOL      0.130019
    134 C44         8.5270   -0.4980   -0.6690 c         1 MOL      0.351587
    135 O18         8.8180    0.5790   -0.0670 o         1 MOL     -0.514613
    136 C45         9.9890   -2.5480   -0.3890 c3        1 MOL     -0.155246
    137 H62         7.5510   -3.6520   -0.3680 hn        1 MOL      0.252682
    138 H63         8.8360   -1.6310    1.1040 h1        1 MOL      0.078251
    139 H64        10.1150   -2.5940   -1.4760 hc        1 MOL      0.056935
    140 H65        10.8640   -2.0290    0.0110 hc        1 MOL      0.056935
    141 H66        10.0670   -3.5520    0.0270 hc        1 MOL      0.056935
    142 N13         8.0400   -0.5190   -1.8620 n         1 MOL     -0.203247
    143 C46         7.7790    0.5800   -2.8070 c3        1 MOL      0.034704
    144 C47         6.8140    1.6060   -2.2100 c         1 MOL      0.376991
    145 O19         6.9130    2.8410   -2.4550 o         1 MOL     -0.526790
    146 C48         7.0940   -0.1280   -4.0010 c3        1 MOL     -0.360300
    147 H67         8.1620   -1.4430   -2.2380 hn        1 MOL      0.245617
    148 H68         8.6490    1.2120   -2.9980 h1        1 MOL      0.103155
    149 H69         6.6800    0.5620   -4.7390 hc        1 MOL      0.102196
    150 H70         7.7570   -0.8610   -4.4680 hc        1 MOL      0.102196
    151 H71         6.1910   -0.6430   -3.6440 hc        1 MOL      0.102196
    152 N14         5.9110    1.1900   -1.3310 n         1 MOL      0.061263
    153 C49         4.8730    2.1530   -0.7550 c3        1 MOL     -0.091067
    154 C50         5.4040    2.8050    0.5240 c         1 MOL      0.402200
    155 O20         5.3880    3.9900    0.7580 o         1 MOL     -0.548587
    156 C51         3.5300    1.4720   -0.4300 c3        1 MOL      0.107448
    157 C52         2.9920    0.8050   -1.7800 c3        1 MOL     -0.268002
    158 C53         1.5080    0.3260   -1.5260 c         1 MOL      0.794732
    159 O21         1.2670   -0.8820   -1.4790 o         1 MOL     -0.755766
    160 O22         0.5970    1.1770   -1.3310 o         1 MOL     -0.755766
    161 H72         5.8960    0.2150   -1.0760 hn        1 MOL     -0.020752
    162 H73         4.6810    2.9720   -1.4520 h1        1 MOL      0.101389
    163 H74         2.7920    2.1500   -0.0150 hc        1 MOL      0.021884
    164 H75         3.7830    0.7040    0.3020 hc        1 MOL      0.021884
    165 H76         3.6810   -0.0170   -1.9840 hc        1 MOL      0.046089
    166 H77         3.0600    1.5160   -2.6040 hc        1 MOL      0.046089
    167 N15         6.1370    2.0420    1.4000 n         1 MOL     -0.039454
    168 C54         6.7780    2.5930    2.6460 c3        1 MOL     -0.404307
    169 H78         6.0990    3.3020    3.1210 h1        1 MOL      0.145066
    170 H79         6.9920    1.7770    3.3370 h1        1 MOL      0.145066
    171 H80         7.7070    3.1000    2.3850 h1        1 MOL      0.145066
    172 H81         6.1980    1.0720    1.1440 hn        1 MOL      0.110351
    173 Ca1        -1.3940   -0.5270   -1.1380 Ca        1 MOL      1.696038
    174 O23        -0.7030   -3.0340   -2.1600 oh        1 MOL     -0.840550
    175 H82         0.0050   -2.8570   -2.7770 ho        1 MOL      0.410085
    176 H83        -0.3880   -3.7740   -1.6430 ho        1 MOL      0.410085
    177 O24        -1.0050   -0.7090   -3.8310 oh        1 MOL     -0.840550
    178 H84        -1.1140   -1.4330   -4.4610 ho        1 MOL      0.410085
    179 H85        -0.4800   -0.0690   -4.2970 ho        1 MOL      0.410085
@<TRIPOS>BOND
     1    1    2 1   
     2    1    4 1   
     3    1    5 1   
     4    1    6 1   
     5    2    3 2   
     6    2    7 1   
     7    7    8 1   
     8    7   15 1   
     9    8    9 1   
    10    8   11 1   
    11    8   16 1   
    12    9   10 2   
    13    9   19 1   
    14   11   12 1   
    15   11   17 1   
    16   11   18 1   
    17   12   13 1   
    18   12   14 1   
    19   19   20 1   
    20   19   28 1   
    21   20   21 1   
    22   20   23 1   
    23   20   29 1   
    24   21   22 2   
    25   21   41 1   
    26   23   24 1   
    27   23   30 1   
    28   23   31 1   
    29   24   25 1   
    30   24   32 1   
    31   24   33 1   
    32   25   26 1   
    33   25   34 1   
    34   25   35 1   
    35   26   27 1   
    36   26   36 1   
    37   26   37 1   
    38   27   38 1   
    39   27   39 1   
    40   27   40 1   
    41   41   42 1   
    42   41   49 1   
    43   42   43 1   
    44   42   45 1   
    45   42   50 1   
    46   43   44 2   
    47   43   53 1   
    48   45   46 1   
    49   45   51 1   
    50   45   52 1   
    51   46   47 1   
    52   46   48 1   
    53   53   54 1   
    54   53   57 1   
    55   54   55 1   
    56   54   58 1   
    57   54   59 1   
    58   55   56 2   
    59   55   60 1   
    60   60   61 1   
    61   60   68 1   
    62   61   62 1   
    63   61   64 1   
    64   61   69 1   
    65   62   63 2   
    66   62   74 1   
    67   64   65 1   
    68   64   70 1   
    69   64   71 1   
    70   65   66 1   
    71   65   67 2   
    72   66   72 1   
    73   66   73 1   
    74   74   75 1   
    75   74   78 1   
    76   75   76 1   
    77   75   79 1   
    78   75   80 1   
    79   76   77 2   
    80   76   81 1   
    81   81   82 1   
    82   81   93 1   
    83   82   83 1   
    84   82   85 1   
    85   82   94 1   
    86   83   84 2   
    87   83  102 1   
    88   85   86 1   
    89   85   95 1   
    90   85   96 1   
    91   86   87 ar  
    92   86   88 ar  
    93   87   89 ar  
    94   87   97 1   
    95   88   90 ar  
    96   88   98 1   
    97   89   91 ar  
    98   89   99 1   
    99   90   91 ar  
   100   90  100 1   
   101   91   92 1   
   102   92  101 1   
   103  102  103 1   
   104  102  110 1   
   105  103  104 1   
   106  103  106 1   
   107  103  111 1   
   108  104  105 2   
   109  104  121 1   
   110  106  107 1   
   111  106  108 1   
   112  106  112 1   
   113  107  109 1   
   114  107  113 1   
   115  107  114 1   
   116  108  115 1   
   117  108  116 1   
   118  108  117 1   
   119  109  118 1   
   120  109  119 1   
   121  109  120 1   
   122  121  122 1   
   123  121  127 1   
   124  122  123 1   
   125  122  125 1   
   126  122  128 1   
   127  123  124 2   
   128  123  132 1   
   129  125  126 1   
   130  125  129 1   
   131  125  130 1   
   132  126  131 1   
   133  132  133 1   
   134  132  137 1   
   135  133  134 1   
   136  133  136 1   
   137  133  138 1   
   138  134  135 2   
   139  134  142 1   
   140  136  139 1   
   141  136  140 1   
   142  136  141 1   
   143  142  143 1   
   144  142  147 1   
   145  143  144 1   
   146  143  146 1   
   147  143  148 1   
   148  144  145 2   
   149  144  152 1   
   150  146  149 1   
   151  146  150 1   
   152  146  151 1   
   153  152  153 1   
   154  152  161 1   
   155  153  154 1   
   156  153  156 1   
   157  153  162 1   
   158  154  155 2   
   159  154  167 1   
   160  156  157 1   
   161  156  163 1   
   162  156  164 1   
   163  157  158 1   
   164  157  165 1   
   165  157  166 1   
   166  158  159 1   
   167  158  160 1   
   168  167  168 1   
   169  167  172 1   
   170  168  169 1   
   171  168  170 1   
   172  168  171 1   
   173  174  175 1   
   174  174  176 1   
   175  177  178 1   
   176  177  179 1   
@<TRIPOS>SUBSTRUCTURE
     1 MOL         1 TEMP              0 ****  ****    0 ROOT
