@<TRIPOS>MOLECULE
MOL
  179   176     1     0     0
SMALL
resp


@<TRIPOS>ATOM
      1 C1         -2.0890   -2.6380    5.7820 c3        1 MOL     -0.284710
      2 C2         -1.5310   -2.2180    4.4090 c         1 MOL      0.793233
      3 O1         -2.3240   -2.2540    3.4790 o         1 MOL     -0.627935
      4 H1         -2.2150   -1.7540    6.4080 hc        1 MOL      0.071758
      5 H2         -3.0530   -3.1280    5.6480 hc        1 MOL      0.071758
      6 H3         -1.3930   -3.3260    6.2610 hc        1 MOL      0.071758
      7 N1         -0.2380   -1.9610    4.2120 n         1 MOL     -0.597707
      8 C3          0.3320   -2.0720    2.9120 c3        1 MOL      0.011989
      9 C4          0.1610   -3.4730    2.2090 c         1 MOL      0.488203
     10 O2          0.5860   -4.5280    2.7170 o         1 MOL     -0.559588
     11 C5          1.8330   -1.7930    3.1160 c3        1 MOL     -0.018446
     12 C6          2.6990   -1.8420    1.8420 c         1 MOL      0.627004
     13 O3          2.1130   -1.9300    0.7590 o         1 MOL     -0.654650
     14 O4          3.9090   -1.6380    1.8870 o         1 MOL     -0.654650
     15 H4          0.2920   -2.2110    5.0380 hn        1 MOL      0.317739
     16 H5         -0.0040   -1.3430    2.1660 h1        1 MOL     -0.017988
     17 H6          2.3740   -2.3680    3.8750 hc        1 MOL      0.023757
     18 H7          1.9450   -0.8150    3.5780 hc        1 MOL      0.023757
     19 N2         -0.5180   -3.5080    1.0620 n         1 MOL      0.032626
     20 C7         -1.1520   -4.7680    0.5090 c3        1 MOL     -0.395174
     21 C8         -0.2520   -5.5170   -0.4620 c         1 MOL      0.716257
     22 O5         -0.6490   -6.5980   -1.0220 o         1 MOL     -0.590204
     23 C9         -2.4420   -4.2100   -0.1920 c3        1 MOL      0.081486
     24 C10        -3.4800   -5.3670   -0.4290 c3        1 MOL     -0.108463
     25 C11        -4.6510   -4.7900   -1.3210 c3        1 MOL      0.059439
     26 C12        -4.3390   -4.3520   -2.7900 c3        1 MOL      0.029361
     27 N3         -5.3260   -4.8690   -3.7990 n4        1 MOL     -0.240115
     28 H8         -0.7540   -2.5950    0.7140 hn        1 MOL      0.190902
     29 H9         -1.4480   -5.4450    1.2960 h1        1 MOL      0.155988
     30 H10        -2.1510   -3.8380   -1.1770 hc        1 MOL      0.099422
     31 H11        -2.9490   -3.5100    0.4670 hc        1 MOL      0.099422
     32 H12        -4.0380   -5.6920    0.4510 hc        1 MOL      0.055176
     33 H13        -3.0860   -6.2560   -0.9160 hc        1 MOL      0.055176
     34 H14        -5.1780   -3.9620   -0.8490 hc        1 MOL     -0.007690
     35 H15        -5.3490   -5.6280   -1.4260 hc        1 MOL     -0.007690
     36 H16        -3.3430   -4.7330   -2.9900 hx        1 MOL      0.053430
     37 H17        -4.3570   -3.2580   -2.7250 hx        1 MOL      0.053430
     38 H18        -5.4190   -5.8690   -3.8980 hn        1 MOL      0.292398
     39 H19        -6.2990   -4.7590   -3.5260 hn        1 MOL      0.292398
     40 H20        -5.1540   -4.7080   -4.7840 hn        1 MOL      0.292398
     41 N4          0.9530   -4.9330   -0.7150 n         1 MOL     -0.371388
     42 C13         1.9620   -5.4190   -1.6800 c3        1 MOL      0.024315
     43 C14         3.3800   -5.3440   -1.2080 c         1 MOL      0.529075
     44 O6          4.2530   -6.0390   -1.6480 o         1 MOL     -0.517828
     45 C15         1.7900   -4.5730   -2.9780 c3        1 MOL     -0.218208
     46 C16         1.6980   -3.0870   -2.6330 c         1 MOL      0.739004
     47 O7          0.6100   -2.5110   -2.4480 o         1 MOL     -0.723164
     48 O8          2.7820   -2.4960   -2.3880 o         1 MOL     -0.723164
     49 H21         1.0610   -4.0240   -0.2940 hn        1 MOL     -0.121988
     50 H22         1.8080   -6.4510   -2.0180 h1        1 MOL      0.099980
     51 H23         0.9310   -4.9390   -3.5480 hc        1 MOL      0.059026
     52 H24         2.6590   -4.6860   -3.6320 hc        1 MOL      0.059026
     53 N5          3.5530   -4.5720   -0.0960 n         1 MOL     -0.228897
     54 C17         4.8140   -4.5380    0.6610 c3        1 MOL     -0.222617
     55 C18         5.8550   -3.6520    0.0690 c         1 MOL      0.621820
     56 O9          6.9670   -4.0490   -0.3310 o         1 MOL     -0.606910
     57 H25         2.9260   -3.8570    0.2180 hn        1 MOL      0.335424
     58 H26         5.1850   -5.5560    0.6350 h1        1 MOL      0.088290
     59 H27         4.6280   -4.3040    1.7110 h1        1 MOL      0.088290
     60 N6          5.5490   -2.3910   -0.0170 n         1 MOL     -0.303378
     61 C19         6.4740   -1.4140   -0.5890 c3        1 MOL      0.024777
     62 C20         6.7470   -0.1820    0.2880 c         1 MOL      0.259658
     63 O10         7.2290    0.8010   -0.2710 o         1 MOL     -0.457312
     64 C21         6.0180   -0.9850   -2.0010 c3        1 MOL     -0.176067
     65 C22         4.9950    0.1180   -1.9330 c         1 MOL      0.585328
     66 N7          5.1050    0.9500   -3.0100 n         1 MOL     -0.647460
     67 O11         4.1280    0.2230   -1.0660 o         1 MOL     -0.522781
     68 H28         4.6640   -2.1010    0.3620 hn        1 MOL      0.184080
     69 H29         7.4370   -1.8940   -0.7550 h1        1 MOL      0.129261
     70 H30         5.5700   -1.8400   -2.5030 hc        1 MOL      0.084664
     71 H31         6.8940   -0.5870   -2.5230 hc        1 MOL      0.084664
     72 H32         5.8280    0.7670   -3.6870 hn        1 MOL      0.327229
     73 H33         4.3800    1.6640   -2.9950 hn        1 MOL      0.327229
     74 N8          6.4100   -0.0670    1.5310 n         1 MOL     -0.134236
     75 C23         6.6170    1.1730    2.3150 c3        1 MOL     -0.340753
     76 C24         5.6270    2.3230    2.0610 c         1 MOL      0.580038
     77 O12         5.7670    3.4140    2.6220 o         1 MOL     -0.585173
     78 H34         5.9560   -0.8440    1.9910 hn        1 MOL      0.230760
     79 H35         7.6080    1.5950    2.1450 h1        1 MOL      0.158410
     80 H36         6.5650    0.8380    3.3470 h1        1 MOL      0.158410
     81 N9          4.6160    2.1520    1.2590 n         1 MOL     -0.348409
     82 C25         3.4860    3.0510    0.8930 c3        1 MOL      0.463235
     83 C26         2.0560    2.4520    1.0170 c         1 MOL      0.162538
     84 O13         1.8110    1.3580    0.5470 o         1 MOL     -0.494142
     85 C27         3.6530    3.5920   -0.5270 c3        1 MOL      0.032250
     86 C28         4.7780    4.5800   -0.8080 ca        1 MOL      0.121393
     87 C29         5.8810    4.1700   -1.5930 ca        1 MOL     -0.326333
     88 C30         4.7070    5.8890   -0.2830 ca        1 MOL     -0.326333
     89 C31         6.9500    5.0940   -1.7680 ca        1 MOL     -0.036942
     90 C32         5.7530    6.8210   -0.5320 ca        1 MOL     -0.036942
     91 C33         6.8560    6.4140   -1.3070 ca        1 MOL      0.122235
     92 O14         7.9060    7.2910   -1.4760 oh        1 MOL     -0.443093
     93 H37         4.6270    1.2960    0.7100 hn        1 MOL      0.222664
     94 H38         3.4770    3.8650    1.6240 h1        1 MOL     -0.036359
     95 H39         2.7060    4.0250   -0.8500 hc        1 MOL     -0.023534
     96 H40         3.7270    2.7360   -1.1950 hc        1 MOL     -0.023534
     97 H41         5.9510    3.1200   -1.8330 ha        1 MOL      0.145455
     98 H42         3.8560    6.1920    0.3110 ha        1 MOL      0.145455
     99 H43         7.8610    4.8200   -2.2690 ha        1 MOL      0.107239
    100 H44         5.6130    7.8480   -0.2180 ha        1 MOL      0.107239
    101 H45         7.6630    8.1330   -1.0980 ho        1 MOL      0.344116
    102 N10         1.0840    3.1430    1.6220 n         1 MOL     -0.429801
    103 C34        -0.3690    2.7910    1.5330 c3        1 MOL      0.023915
    104 C35        -1.2140    3.7000    0.5900 c         1 MOL      0.594834
    105 O15        -1.1600    4.9000    0.7230 o         1 MOL     -0.583935
    106 C36        -0.9050    2.6690    2.9670 c3        1 MOL      0.114318
    107 C37        -0.1810    1.5400    3.7130 c3        1 MOL      0.078565
    108 C38        -2.4200    2.5430    2.7890 c3        1 MOL     -0.354061
    109 C39        -0.4300    1.4690    5.2300 c3        1 MOL     -0.275330
    110 H46         1.3110    4.0480    2.0160 hn        1 MOL      0.296861
    111 H47        -0.5000    1.7960    1.0980 h1        1 MOL      0.030276
    112 H48        -0.7150    3.6310    3.4510 hc        1 MOL      0.023654
    113 H49         0.9010    1.6730    3.6190 hc        1 MOL      0.057885
    114 H50        -0.2140    0.5280    3.3200 hc        1 MOL      0.057885
    115 H51        -2.8500    3.4470    2.3710 hc        1 MOL      0.076819
    116 H52        -2.6600    1.6750    2.1840 hc        1 MOL      0.076819
    117 H53        -2.8150    2.3710    3.7900 hc        1 MOL      0.076819
    118 H54         0.1900    0.6840    5.6420 hc        1 MOL      0.054084
    119 H55        -0.0810    2.4470    5.5630 hc        1 MOL      0.054084
    120 H56        -1.4730    1.2390    5.4260 hc        1 MOL      0.054084
    121 N11        -2.0050    3.1760   -0.3220 n         1 MOL     -0.303088
    122 C40        -2.9960    3.9160   -1.1080 c3        1 MOL      0.082500
    123 C41        -4.4500    3.7540   -0.4070 c         1 MOL      0.346071
    124 O16        -4.6800    2.8740    0.4090 o         1 MOL     -0.369056
    125 C42        -3.0440    3.4350   -2.5820 c3        1 MOL      0.144684
    126 O17        -1.8030    3.2290   -3.0600 oh        1 MOL     -0.603720
    127 H57        -2.0780    2.1740   -0.4010 hn        1 MOL      0.390472
    128 H58        -2.7300    4.9680   -1.0040 h1        1 MOL      0.073456
    129 H59        -3.4860    4.2220   -3.1930 h1        1 MOL     -0.005701
    130 H60        -3.6500    2.5250   -2.5750 h1        1 MOL     -0.005701
    131 H61        -1.9230    3.0860   -4.0060 ho        1 MOL      0.427815
    132 N12        -5.4070    4.5650   -0.8070 n         1 MOL     -0.411450
    133 C43        -6.8200    4.5650   -0.3480 c3        1 MOL      0.227872
    134 C44        -7.5200    3.1670   -0.4860 c         1 MOL      0.377839
    135 O18        -8.0230    2.6560    0.5230 o         1 MOL     -0.500845
    136 C45        -7.5340    5.6090   -1.1300 c3        1 MOL     -0.317122
    137 H62        -5.3200    5.2460   -1.5520 hn        1 MOL      0.248951
    138 H63        -6.8360    4.8930    0.6940 h1        1 MOL      0.068781
    139 H64        -8.5890    5.6980   -0.8880 hc        1 MOL      0.095426
    140 H65        -7.0330    6.5550   -0.9640 hc        1 MOL      0.095426
    141 H66        -7.5150    5.3100   -2.1820 hc        1 MOL      0.095426
    142 N13        -7.4950    2.5470   -1.6680 n         1 MOL     -0.306081
    143 C46        -8.0720    1.2160   -1.9180 c3        1 MOL      0.022173
    144 C47        -7.4120    0.0990   -1.1200 c         1 MOL      0.378942
    145 O19        -8.0060   -0.9900   -0.9520 o         1 MOL     -0.539360
    146 C48        -8.1750    1.0180   -3.4040 c3        1 MOL     -0.362120
    147 H67        -6.9400    2.9420   -2.4120 hn        1 MOL      0.221161
    148 H68        -9.1140    1.2500   -1.5850 h1        1 MOL      0.145166
    149 H69        -8.8450    0.1620   -3.5570 hc        1 MOL      0.108885
    150 H70        -8.7060    1.7860   -3.9520 hc        1 MOL      0.108885
    151 H71        -7.1910    0.9250   -3.8830 hc        1 MOL      0.108885
    152 N14        -6.2340    0.3100   -0.5930 n         1 MOL     -0.035229
    153 C49        -5.5000   -0.6710    0.2630 c3        1 MOL     -0.282657
    154 C50        -6.0340   -0.5970    1.7400 c         1 MOL      0.621396
    155 O20        -6.3150   -1.6360    2.3580 o         1 MOL     -0.558358
    156 C51        -3.9720   -0.4110    0.2820 c3        1 MOL      0.071213
    157 C52        -3.3010   -0.6880   -1.1080 c3        1 MOL      0.019405
    158 C53        -1.8140   -0.4140   -1.0380 c         1 MOL      0.642204
    159 O21        -1.2590    0.1830   -1.9620 o         1 MOL     -0.756967
    160 O22        -1.0750   -0.8510   -0.1230 o         1 MOL     -0.756967
    161 H72        -5.8320    1.2250   -0.7470 hn        1 MOL      0.123558
    162 H73        -5.6990   -1.6810   -0.0680 h1        1 MOL      0.137757
    163 H74        -3.5180   -1.1020    0.9890 hc        1 MOL      0.002114
    164 H75        -3.7940    0.6040    0.6340 hc        1 MOL      0.002114
    165 H76        -3.7720   -0.0160   -1.8280 hc        1 MOL     -0.044561
    166 H77        -3.5220   -1.6980   -1.4380 hc        1 MOL     -0.044561
    167 N15        -6.1450    0.5770    2.3530 n         1 MOL     -0.254626
    168 C54        -7.0190    0.8710    3.4970 c3        1 MOL     -0.260027
    169 H78        -6.6010    1.6980    4.0700 h1        1 MOL      0.118430
    170 H79        -8.0110    1.1440    3.1370 h1        1 MOL      0.118430
    171 H80        -7.0930   -0.0110    4.1340 h1        1 MOL      0.118430
    172 H81        -5.7930    1.3920    1.8760 hn        1 MOL      0.203221
    173 Ca1         1.2590   -0.4210   -1.2540 Ca        1 MOL      1.792633
    174 O23         0.7750    2.2520   -1.8600 oh        1 MOL     -0.912005
    175 H82         1.0730    3.1640   -1.9550 ho        1 MOL      0.430956
    176 H83        -0.1850    2.3050   -1.9370 ho        1 MOL      0.430956
    177 O24         1.7000    0.1720   -3.7460 oh        1 MOL     -0.912005
    178 H84         1.2390    0.9930   -3.9150 ho        1 MOL      0.430956
    179 H85         1.9040   -0.1690   -4.6160 ho        1 MOL      0.430956
@<TRIPOS>BOND
     1    1    2 1   
     2    1    4 1   
     3    1    5 1   
     4    1    6 1   
     5    2    3 2   
     6    2    7 1   
     7    7    8 1   
     8    7   15 1   
     9    8    9 1   
    10    8   11 1   
    11    8   16 1   
    12    9   10 2   
    13    9   19 1   
    14   11   12 1   
    15   11   17 1   
    16   11   18 1   
    17   12   13 1   
    18   12   14 1   
    19   19   20 1   
    20   19   28 1   
    21   20   21 1   
    22   20   23 1   
    23   20   29 1   
    24   21   22 2   
    25   21   41 1   
    26   23   24 1   
    27   23   30 1   
    28   23   31 1   
    29   24   25 1   
    30   24   32 1   
    31   24   33 1   
    32   25   26 1   
    33   25   34 1   
    34   25   35 1   
    35   26   27 1   
    36   26   36 1   
    37   26   37 1   
    38   27   38 1   
    39   27   39 1   
    40   27   40 1   
    41   41   42 1   
    42   41   49 1   
    43   42   43 1   
    44   42   45 1   
    45   42   50 1   
    46   43   44 2   
    47   43   53 1   
    48   45   46 1   
    49   45   51 1   
    50   45   52 1   
    51   46   47 1   
    52   46   48 1   
    53   53   54 1   
    54   53   57 1   
    55   54   55 1   
    56   54   58 1   
    57   54   59 1   
    58   55   56 2   
    59   55   60 1   
    60   60   61 1   
    61   60   68 1   
    62   61   62 1   
    63   61   64 1   
    64   61   69 1   
    65   62   63 2   
    66   62   74 1   
    67   64   65 1   
    68   64   70 1   
    69   64   71 1   
    70   65   66 1   
    71   65   67 2   
    72   66   72 1   
    73   66   73 1   
    74   74   75 1   
    75   74   78 1   
    76   75   76 1   
    77   75   79 1   
    78   75   80 1   
    79   76   77 2   
    80   76   81 1   
    81   81   82 1   
    82   81   93 1   
    83   82   83 1   
    84   82   85 1   
    85   82   94 1   
    86   83   84 2   
    87   83  102 1   
    88   85   86 1   
    89   85   95 1   
    90   85   96 1   
    91   86   87 ar  
    92   86   88 ar  
    93   87   89 ar  
    94   87   97 1   
    95   88   90 ar  
    96   88   98 1   
    97   89   91 ar  
    98   89   99 1   
    99   90   91 ar  
   100   90  100 1   
   101   91   92 1   
   102   92  101 1   
   103  102  103 1   
   104  102  110 1   
   105  103  104 1   
   106  103  106 1   
   107  103  111 1   
   108  104  105 2   
   109  104  121 1   
   110  106  107 1   
   111  106  108 1   
   112  106  112 1   
   113  107  109 1   
   114  107  113 1   
   115  107  114 1   
   116  108  115 1   
   117  108  116 1   
   118  108  117 1   
   119  109  118 1   
   120  109  119 1   
   121  109  120 1   
   122  121  122 1   
   123  121  127 1   
   124  122  123 1   
   125  122  125 1   
   126  122  128 1   
   127  123  124 2   
   128  123  132 1   
   129  125  126 1   
   130  125  129 1   
   131  125  130 1   
   132  126  131 1   
   133  132  133 1   
   134  132  137 1   
   135  133  134 1   
   136  133  136 1   
   137  133  138 1   
   138  134  135 2   
   139  134  142 1   
   140  136  139 1   
   141  136  140 1   
   142  136  141 1   
   143  142  143 1   
   144  142  147 1   
   145  143  144 1   
   146  143  146 1   
   147  143  148 1   
   148  144  145 2   
   149  144  152 1   
   150  146  149 1   
   151  146  150 1   
   152  146  151 1   
   153  152  153 1   
   154  152  161 1   
   155  153  154 1   
   156  153  156 1   
   157  153  162 1   
   158  154  155 2   
   159  154  167 1   
   160  156  157 1   
   161  156  163 1   
   162  156  164 1   
   163  157  158 1   
   164  157  165 1   
   165  157  166 1   
   166  158  159 1   
   167  158  160 1   
   168  167  168 1   
   169  167  172 1   
   170  168  169 1   
   171  168  170 1   
   172  168  171 1   
   173  174  175 1   
   174  174  176 1   
   175  177  178 1   
   176  177  179 1   
@<TRIPOS>SUBSTRUCTURE
     1 MOL         1 TEMP              0 ****  ****    0 ROOT
