@<TRIPOS>MOLECULE
MOL
  186   183     1     0     0
SMALL
resp


@<TRIPOS>ATOM
      1 C1          0.9290    3.3670   -4.5990 c3        1 MOL     -0.309414
      2 C2          1.3800    2.9030   -3.1980 c         1 MOL      0.677003
      3 O1          0.8680    3.3440   -2.1480 o         1 MOL     -0.582336
      4 H1          1.8050    3.6240   -5.1960 hc        1 MOL      0.081240
      5 H2          0.3790    2.5650   -5.0890 hc        1 MOL      0.081240
      6 H3          0.2860    4.2420   -4.5040 hc        1 MOL      0.081240
      7 N1          2.4620    2.1200   -3.1290 n         1 MOL     -0.641982
      8 C3          3.0040    1.4220   -1.9830 c3        1 MOL      0.527559
      9 C4          3.8820    2.3080   -1.1300 c         1 MOL      0.229792
     10 O2          5.0760    1.9940   -0.9190 o         1 MOL     -0.462351
     11 C5          3.6770    0.1190   -2.4650 c3        1 MOL     -0.247289
     12 C6          4.0890   -0.7600   -1.3090 c         1 MOL      0.727039
     13 O3          3.3560   -0.8620   -0.3040 o         1 MOL     -0.689947
     14 O4          5.1420   -1.4250   -1.3100 o         1 MOL     -0.689947
     15 H4          2.8100    1.9130   -4.0610 hn        1 MOL      0.288707
     16 H5          2.1490    1.0190   -1.4560 h1        1 MOL     -0.022364
     17 H6          4.5000    0.3780   -3.1340 hc        1 MOL      0.032355
     18 H7          2.8950   -0.3990   -3.0190 hc        1 MOL      0.032355
     19 N2          3.3780    3.5120   -0.6780 n         1 MOL     -0.221464
     20 C7          4.1450    4.6490   -0.0850 c3        1 MOL     -0.125590
     21 C8          4.4830    4.4490    1.3900 c         1 MOL      0.289330
     22 O5          5.3850    5.0230    1.9950 o         1 MOL     -0.509132
     23 C9          3.3780    5.9950   -0.2660 c3        1 MOL     -0.291992
     24 C10         3.7100    6.6250   -1.6430 c3        1 MOL      0.155536
     25 C11         5.0350    7.4680   -1.5320 c3        1 MOL     -0.099692
     26 C12         5.5360    7.7440   -2.9270 c3        1 MOL      0.147435
     27 N3          6.8760    8.4100   -2.8790 n4        1 MOL     -0.396801
     28 H8          2.4310    3.6690   -1.0010 hn        1 MOL      0.283396
     29 H9          5.0970    4.7230   -0.6150 h1        1 MOL      0.159845
     30 H10         3.7020    6.7140    0.4870 hc        1 MOL      0.137786
     31 H11         2.3050    5.8100   -0.1910 hc        1 MOL      0.137786
     32 H12         2.8450    7.2610   -1.8560 hc        1 MOL     -0.017096
     33 H13         3.8500    5.8710   -2.4160 hc        1 MOL     -0.017096
     34 H14         5.7530    6.8310   -1.0090 hc        1 MOL      0.043107
     35 H15         4.7260    8.3700   -0.9950 hc        1 MOL      0.043107
     36 H16         4.7740    8.3850   -3.3600 hx        1 MOL      0.045371
     37 H17         5.5690    6.8180   -3.4970 hx        1 MOL      0.045371
     38 H18         7.6120    7.7190   -2.8480 hn        1 MOL      0.336190
     39 H19         6.9340    9.0240   -3.6710 hn        1 MOL      0.336190
     40 H20         6.9030    8.9650   -2.0370 hn        1 MOL      0.336190
     41 N4          3.6020    3.6390    2.0330 n         1 MOL     -0.153982
     42 C13         3.9060    3.0030    3.3140 c3        1 MOL     -0.145623
     43 C14         5.0620    1.9720    3.2190 c         1 MOL      0.483760
     44 O6          5.5930    1.6490    4.2330 o         1 MOL     -0.520527
     45 C15         2.6110    2.4060    3.9600 c3        1 MOL     -0.088532
     46 C16         1.9930    1.2970    3.0730 c         1 MOL      0.920152
     47 O7          1.0400    0.6120    3.4350 o         1 MOL     -0.802104
     48 O8          2.5360    0.9950    1.9810 o         1 MOL     -0.802104
     49 H21         2.8390    3.1920    1.5420 hn        1 MOL      0.200672
     50 H22         4.1640    3.8680    3.9240 h1        1 MOL      0.121741
     51 H23         1.8740    3.2150    3.9030 hc        1 MOL      0.016164
     52 H24         2.7070    2.1180    5.0020 hc        1 MOL      0.016164
     53 N5          5.6000    1.5280    2.0660 n         1 MOL     -0.007508
     54 C17         6.8230    0.7000    1.8210 c3        1 MOL     -0.402309
     55 C18         6.8170   -0.6780    2.4240 c         1 MOL      0.787790
     56 O9          7.4270   -0.9330    3.4130 o         1 MOL     -0.567889
     57 H25         5.0460    1.6660    1.2280 hn        1 MOL      0.118163
     58 H26         7.7200    1.2300    2.1200 h1        1 MOL      0.120600
     59 H27         6.9700    0.4520    0.7610 h1        1 MOL      0.120600
     60 N6          6.1440   -1.6630    1.7550 n         1 MOL     -0.654203
     61 C19         6.0910   -3.0590    2.1710 c3        1 MOL      0.040705
     62 C20         6.0000   -4.1460    1.0150 c         1 MOL      0.383678
     63 O10         5.9520   -5.3120    1.3250 o         1 MOL     -0.504668
     64 C21         4.9010   -3.3650    3.1230 c3        1 MOL      0.019426
     65 C22         3.5120   -2.7820    2.7010 c         1 MOL      0.661616
     66 O11         2.9870   -1.8680    3.2650 o         1 MOL     -0.684236
     67 O12         2.8600   -3.2350    1.7530 o         1 MOL     -0.684236
     68 H28         5.6010   -1.3330    0.9700 hn        1 MOL      0.360430
     69 H29         6.9880   -3.2940    2.7520 h1        1 MOL      0.090298
     70 H30         5.1840   -3.1530    4.1470 hc        1 MOL      0.013765
     71 H31         4.7260   -4.4340    3.2120 hc        1 MOL      0.013765
     72 N7          5.9240   -3.7810   -0.2780 n         1 MOL     -0.239489
     73 C23         5.8060   -4.6410   -1.4300 c3        1 MOL     -0.014835
     74 C24         4.3600   -5.2170   -1.6500 c         1 MOL      0.514799
     75 O13         4.2540   -6.2690   -2.3350 o         1 MOL     -0.582939
     76 H32         5.6330   -2.8330   -0.4400 hn        1 MOL      0.194937
     77 H33         6.5020   -5.4920   -1.4070 h1        1 MOL      0.053620
     78 H34         6.1080   -4.0110   -2.2640 h1        1 MOL      0.053620
     79 N8          3.2720   -4.5970   -1.1630 n         1 MOL     -0.208506
     80 C25         1.8250   -5.0200   -1.3340 c3        1 MOL     -0.276500
     81 C26         0.8870   -3.8000   -1.5330 c         1 MOL      0.743161
     82 O14         0.8810   -2.8600   -0.7240 o         1 MOL     -0.736381
     83 C27         1.2980   -5.8520   -0.0840 c3        1 MOL      0.421342
     84 C28         1.5520   -7.2800   -0.4200 c3        1 MOL     -0.461866
     85 O15         2.0630   -5.6580    1.0630 oh        1 MOL     -0.551956
     86 H35         3.4100   -3.6360   -0.8920 hn        1 MOL      0.245592
     87 H36         1.7240   -5.6280   -2.2340 h1        1 MOL      0.112004
     88 H37         0.2400   -5.6300    0.0810 h1        1 MOL     -0.032206
     89 H38         2.1670   -4.7040    1.0980 ho        1 MOL      0.341347
     90 H39         1.2330   -7.8660    0.4480 hc        1 MOL      0.120925
     91 H40         0.9720   -7.6680   -1.2630 hc        1 MOL      0.120925
     92 H41         2.5950   -7.5180   -0.5820 hc        1 MOL      0.120925
     93 N9         -0.0710   -3.8170   -2.5120 n         1 MOL     -0.612018
     94 C29        -1.0420   -2.7220   -2.6730 c3        1 MOL      0.009081
     95 C30        -2.4630   -3.0190   -2.1190 c         1 MOL      0.675465
     96 O16        -3.0390   -4.0230   -2.5960 o         1 MOL     -0.600225
     97 C31        -0.9330   -2.1630   -4.1400 c3        1 MOL      0.020956
     98 C32         0.4790   -1.5970   -4.3920 c3        1 MOL      0.388718
     99 C33        -1.9030   -0.9750   -4.5320 c3        1 MOL     -0.373773
    100 C34         0.9030   -1.3550   -5.8250 c3        1 MOL     -0.205297
    101 H42        -0.2620   -4.6110   -3.1030 hn        1 MOL      0.337034
    102 H43        -0.7020   -1.8560   -2.0920 h1        1 MOL      0.041457
    103 H44        -0.9700   -3.0100   -4.8280 hc        1 MOL      0.025996
    104 H45         1.2010   -2.3680   -4.1260 hc        1 MOL     -0.062644
    105 H46         0.7010   -0.6530   -3.8850 hc        1 MOL     -0.062644
    106 H47        -1.8030   -0.1810   -3.7930 hc        1 MOL      0.082494
    107 H48        -1.6480   -0.7110   -5.5610 hc        1 MOL      0.082494
    108 H49        -2.9490   -1.2880   -4.5060 hc        1 MOL      0.082494
    109 H50         0.4560   -0.4300   -6.1760 hc        1 MOL      0.028604
    110 H51         1.9800   -1.1660   -5.8040 hc        1 MOL      0.028604
    111 H52         0.7340   -2.2300   -6.4530 hc        1 MOL      0.028604
    112 N10        -3.0270   -2.2380   -1.2100 n         1 MOL     -0.478974
    113 C35        -4.3020   -2.5270   -0.4940 c3        1 MOL      0.097799
    114 C36        -5.3720   -1.5780   -0.9140 c         1 MOL      0.427535
    115 O17        -5.1160   -0.5110   -1.4660 o         1 MOL     -0.492897
    116 C37        -4.2110   -2.5650    1.0270 c3        1 MOL      0.410090
    117 C38        -3.2300   -3.6640    1.5310 c3        1 MOL     -0.570393
    118 O18        -3.8160   -1.3190    1.6310 oh        1 MOL     -0.713731
    119 H53        -2.4260   -1.5380   -0.8100 hn        1 MOL      0.350830
    120 H54        -4.6870   -3.5200   -0.7280 h1        1 MOL      0.025090
    121 H55        -5.1950   -2.8770    1.3970 h1        1 MOL     -0.000488
    122 H56        -2.8670   -1.2170    1.5410 ho        1 MOL      0.478159
    123 H57        -3.3220   -4.5480    0.8920 hc        1 MOL      0.144212
    124 H58        -2.2170   -3.2910    1.3830 hc        1 MOL      0.144212
    125 H59        -3.4360   -3.8060    2.5860 hc        1 MOL      0.144212
    126 N11        -6.6120   -1.8890   -0.5490 n         1 MOL     -0.248670
    127 C39        -7.8130   -1.2170   -0.9630 c3        1 MOL      0.049101
    128 C40        -7.8250    0.2560   -0.5280 c         1 MOL      0.223405
    129 O19        -8.2310    1.1240   -1.3350 o         1 MOL     -0.455736
    130 C41        -9.0320   -1.9080   -0.3730 c3        1 MOL      0.318845
    131 C42       -10.3800   -1.5710   -1.0760 c3        1 MOL     -0.384614
    132 O20        -8.8530   -3.3330   -0.5250 oh        1 MOL     -0.610152
    133 H60        -6.7490   -2.7310   -0.0020 hn        1 MOL      0.171215
    134 H61        -7.9380   -1.2800   -2.0430 h1        1 MOL      0.125036
    135 H62        -9.0100   -1.8180    0.7150 h1        1 MOL     -0.019200
    136 H63        -9.3680   -3.7440    0.1660 ho        1 MOL      0.396448
    137 H64       -11.2640   -2.0980   -0.7010 hc        1 MOL      0.112373
    138 H65       -10.6490   -0.5470   -0.8440 hc        1 MOL      0.112373
    139 H66       -10.3430   -1.6190   -2.1680 hc        1 MOL      0.112373
    140 N12        -7.2180    0.5020    0.6560 n         1 MOL     -0.123988
    141 C43        -7.0330    1.8510    1.2390 c3        1 MOL     -0.330151
    142 C44        -5.9540    2.6580    0.6160 c         1 MOL      0.441095
    143 O21        -5.9370    3.9010    0.7230 o         1 MOL     -0.554559
    144 C45        -6.8620    1.6120    2.8000 c3        1 MOL     -0.134082
    145 C46        -6.9560    2.9080    3.6850 c3        1 MOL      0.137697
    146 C47        -6.8830    2.6170    5.2030 c3        1 MOL     -0.192002
    147 C48        -7.9560    1.6670    5.8090 c3        1 MOL     -0.132723
    148 N13        -9.3400    2.1930    5.7010 n4        1 MOL     -0.213137
    149 H67        -7.0940   -0.2950    1.2650 hn        1 MOL      0.175180
    150 H68        -7.9190    2.4600    1.0980 h1        1 MOL      0.182730
    151 H69        -5.9870    1.0000    2.9620 hc        1 MOL      0.068315
    152 H70        -7.7150    0.9540    3.0000 hc        1 MOL      0.068315
    153 H71        -7.9120    3.4080    3.5520 hc        1 MOL      0.009598
    154 H72        -6.1230    3.5910    3.4780 hc        1 MOL      0.009598
    155 H73        -6.8600    3.5660    5.7290 hc        1 MOL      0.110796
    156 H74        -5.8920    2.1680    5.3210 hc        1 MOL      0.110796
    157 H75        -7.7360    1.7080    6.8820 hx        1 MOL      0.129131
    158 H76        -7.8760    0.6440    5.4390 hx        1 MOL      0.129131
    159 H77       -10.0500    1.6500    6.1660 hn        1 MOL      0.262627
    160 H78        -9.4470    3.0740    6.1860 hn        1 MOL      0.262627
    161 H79        -9.5180    2.3730    4.7250 hn        1 MOL      0.262627
    162 N14        -5.0190    2.1010   -0.1030 n         1 MOL      0.113917
    163 C49        -3.9370    2.8420   -0.7800 c3        1 MOL     -0.451794
    164 C50        -4.4040    3.2940   -2.1920 c         1 MOL      0.589845
    165 O22        -4.2480    4.4440   -2.5810 o         1 MOL     -0.538109
    166 C51        -2.6430    1.9580   -0.7920 c3        1 MOL      0.499672
    167 C52        -2.2630    1.5490    0.6250 c3        1 MOL     -0.338971
    168 C53        -1.1430    0.5380    0.4850 c         1 MOL      0.819103
    169 O23        -1.3400   -0.6570    0.6040 o         1 MOL     -0.777375
    170 O24         0.0330    0.9790    0.4420 o         1 MOL     -0.777375
    171 H80        -4.9530    1.0870   -0.1550 hn        1 MOL      0.165892
    172 H81        -3.6890    3.7600   -0.2440 h1        1 MOL      0.163029
    173 H82        -1.8650    2.5660   -1.2620 hc        1 MOL     -0.096373
    174 H83        -2.7540    1.1480   -1.5050 hc        1 MOL     -0.096373
    175 H84        -3.1780    1.0870    1.0120 hc        1 MOL      0.061565
    176 H85        -1.9050    2.4140    1.1680 hc        1 MOL      0.061565
    177 N15        -5.1280    2.4780   -2.9830 n         1 MOL     -0.255725
    178 C54        -5.9150    2.9190   -4.0800 c3        1 MOL     -0.393849
    179 H86        -5.2600    3.2190   -4.8980 h1        1 MOL      0.143764
    180 H87        -6.5640    2.1090   -4.4120 h1        1 MOL      0.143764
    181 H88        -6.5230    3.7710   -3.7720 h1        1 MOL      0.143764
    182 H89        -5.2620    1.5160   -2.6960 hn        1 MOL      0.240699
    183 Ca1         1.3000   -1.2030    1.3570 Ca        1 MOL      1.774793
    184 O25        -0.3000   -2.6670    2.8810 oh        1 MOL     -0.792870
    185 H90         0.0350   -3.5420    3.0780 ho        1 MOL      0.396598
    186 H91        -1.1400   -2.6320    3.3380 ho        1 MOL      0.396598
@<TRIPOS>BOND
     1    1    2 1   
     2    1    4 1   
     3    1    5 1   
     4    1    6 1   
     5    2    3 2   
     6    2    7 1   
     7    7    8 1   
     8    7   15 1   
     9    8    9 1   
    10    8   11 1   
    11    8   16 1   
    12    9   10 2   
    13    9   19 1   
    14   11   12 1   
    15   11   17 1   
    16   11   18 1   
    17   12   13 1   
    18   12   14 1   
    19   19   20 1   
    20   19   28 1   
    21   20   21 1   
    22   20   23 1   
    23   20   29 1   
    24   21   22 2   
    25   21   41 1   
    26   23   24 1   
    27   23   30 1   
    28   23   31 1   
    29   24   25 1   
    30   24   32 1   
    31   24   33 1   
    32   25   26 1   
    33   25   34 1   
    34   25   35 1   
    35   26   27 1   
    36   26   36 1   
    37   26   37 1   
    38   27   38 1   
    39   27   39 1   
    40   27   40 1   
    41   41   42 1   
    42   41   49 1   
    43   42   43 1   
    44   42   45 1   
    45   42   50 1   
    46   43   44 2   
    47   43   53 1   
    48   45   46 1   
    49   45   51 1   
    50   45   52 1   
    51   46   47 1   
    52   46   48 1   
    53   53   54 1   
    54   53   57 1   
    55   54   55 1   
    56   54   58 1   
    57   54   59 1   
    58   55   56 2   
    59   55   60 1   
    60   60   61 1   
    61   60   68 1   
    62   61   62 1   
    63   61   64 1   
    64   61   69 1   
    65   62   63 2   
    66   62   72 1   
    67   64   65 1   
    68   64   70 1   
    69   64   71 1   
    70   65   66 1   
    71   65   67 1   
    72   72   73 1   
    73   72   76 1   
    74   73   74 1   
    75   73   77 1   
    76   73   78 1   
    77   74   75 2   
    78   74   79 1   
    79   79   80 1   
    80   79   86 1   
    81   80   81 1   
    82   80   83 1   
    83   80   87 1   
    84   81   82 2   
    85   81   93 1   
    86   83   84 1   
    87   83   85 1   
    88   83   88 1   
    89   84   90 1   
    90   84   91 1   
    91   84   92 1   
    92   85   89 1   
    93   93   94 1   
    94   93  101 1   
    95   94   95 1   
    96   94   97 1   
    97   94  102 1   
    98   95   96 2   
    99   95  112 1   
   100   97   98 1   
   101   97   99 1   
   102   97  103 1   
   103   98  100 1   
   104   98  104 1   
   105   98  105 1   
   106   99  106 1   
   107   99  107 1   
   108   99  108 1   
   109  100  109 1   
   110  100  110 1   
   111  100  111 1   
   112  112  113 1   
   113  112  119 1   
   114  113  114 1   
   115  113  116 1   
   116  113  120 1   
   117  114  115 2   
   118  114  126 1   
   119  116  117 1   
   120  116  118 1   
   121  116  121 1   
   122  117  123 1   
   123  117  124 1   
   124  117  125 1   
   125  118  122 1   
   126  126  127 1   
   127  126  133 1   
   128  127  128 1   
   129  127  130 1   
   130  127  134 1   
   131  128  129 2   
   132  128  140 1   
   133  130  131 1   
   134  130  132 1   
   135  130  135 1   
   136  131  137 1   
   137  131  138 1   
   138  131  139 1   
   139  132  136 1   
   140  140  141 1   
   141  140  149 1   
   142  141  142 1   
   143  141  144 1   
   144  141  150 1   
   145  142  143 2   
   146  142  162 1   
   147  144  145 1   
   148  144  151 1   
   149  144  152 1   
   150  145  146 1   
   151  145  153 1   
   152  145  154 1   
   153  146  147 1   
   154  146  155 1   
   155  146  156 1   
   156  147  148 1   
   157  147  157 1   
   158  147  158 1   
   159  148  159 1   
   160  148  160 1   
   161  148  161 1   
   162  162  163 1   
   163  162  171 1   
   164  163  164 1   
   165  163  166 1   
   166  163  172 1   
   167  164  165 2   
   168  164  177 1   
   169  166  167 1   
   170  166  173 1   
   171  166  174 1   
   172  167  168 1   
   173  167  175 1   
   174  167  176 1   
   175  168  169 1   
   176  168  170 1   
   177  177  178 1   
   178  177  182 1   
   179  178  179 1   
   180  178  180 1   
   181  178  181 1   
   182  184  185 1   
   183  184  186 1   
@<TRIPOS>SUBSTRUCTURE
     1 MOL         1 TEMP              0 ****  ****    0 ROOT
