@<TRIPOS>MOLECULE
MOL
  179   176     1     0     0
SMALL
resp


@<TRIPOS>ATOM
      1 C1         -1.0310    4.5730    5.4920 c3        1 MOL     -0.264506
      2 C2         -0.9620    4.1400    3.9780 c         1 MOL      0.591175
      3 O1          0.0040    4.5120    3.3760 o         1 MOL     -0.514717
      4 H1         -1.2890    3.7100    6.1050 hc        1 MOL      0.066076
      5 H2         -0.0620    4.9630    5.8040 hc        1 MOL      0.066076
      6 H3         -1.7900    5.3460    5.6160 hc        1 MOL      0.066076
      7 N1         -1.9650    3.3760    3.5300 n         1 MOL     -0.528950
      8 C3         -1.9590    2.7970    2.1620 c3        1 MOL      0.036369
      9 C4         -2.6530    3.7810    1.0870 c         1 MOL      0.399605
     10 O2         -3.8580    3.9680    1.0570 o         1 MOL     -0.524023
     11 C5         -2.6030    1.4700    2.0640 c3        1 MOL      0.110891
     12 C6         -2.4030    0.8860    0.6160 c         1 MOL      0.653014
     13 O3         -1.5670    1.3420   -0.1780 o         1 MOL     -0.776198
     14 O4         -3.1170   -0.1170    0.2350 o         1 MOL     -0.776198
     15 H4         -2.7520    3.0810    4.0800 hn        1 MOL      0.324283
     16 H5         -0.9260    2.7140    1.8350 h1        1 MOL      0.080836
     17 H6         -3.6590    1.5800    2.3330 hc        1 MOL     -0.020072
     18 H7         -2.2010    0.7350    2.7570 hc        1 MOL     -0.020072
     19 N2         -1.8270    4.3620    0.2290 n         1 MOL     -0.182251
     20 C7         -2.1650    5.6740   -0.4000 c3        1 MOL     -0.114757
     21 C8         -2.9750    5.3550   -1.6830 c         1 MOL      0.455682
     22 O5         -3.6610    6.2420   -2.0660 o         1 MOL     -0.538096
     23 C9         -0.8110    6.3760   -0.6520 c3        1 MOL     -0.020388
     24 C10         0.0430    6.6710    0.6390 c3        1 MOL     -0.173674
     25 C11        -0.7190    7.5520    1.6640 c3        1 MOL      0.020101
     26 C12        -1.0620    8.9580    1.2010 c3        1 MOL      0.162831
     27 N3         -1.7950    9.6770    2.2060 n4        1 MOL     -0.483186
     28 H8         -0.8660    4.0600    0.2340 hn        1 MOL      0.258832
     29 H9         -2.7600    6.3030    0.2510 h1        1 MOL      0.122714
     30 H10        -0.9870    7.3340   -1.1430 hc        1 MOL      0.045317
     31 H11        -0.2560    5.7790   -1.3770 hc        1 MOL      0.045317
     32 H12         0.9120    7.2790    0.3540 hc        1 MOL      0.077565
     33 H13         0.2970    5.7890    1.2290 hc        1 MOL      0.077565
     34 H14        -0.2490    7.6570    2.6420 hc        1 MOL      0.017869
     35 H15        -1.6970    7.0970    1.8330 hc        1 MOL      0.017869
     36 H16        -1.6920    8.9430    0.3180 hx        1 MOL      0.046289
     37 H17        -0.1240    9.4470    0.9060 hx        1 MOL      0.046289
     38 H18        -1.4920   10.6190    1.9730 hn        1 MOL      0.356618
     39 H19        -2.7890    9.4920    2.1980 hn        1 MOL      0.356618
     40 H20        -1.5430    9.5820    3.1740 hn        1 MOL      0.356618
     41 N4         -2.9490    4.1300   -2.1690 n         1 MOL     -0.335565
     42 C13        -3.9020    3.6150   -3.2030 c3        1 MOL      0.188524
     43 C14        -5.2140    3.0050   -2.6210 c         1 MOL      0.342397
     44 O6         -6.2790    2.9410   -3.2580 o         1 MOL     -0.537397
     45 C15        -3.3440    2.5660   -4.1130 c3        1 MOL     -0.395124
     46 C16        -2.7330    1.4080   -3.4120 c         1 MOL      0.872423
     47 O7         -1.5290    1.1880   -3.5550 o         1 MOL     -0.765461
     48 O8         -3.3720    0.6970   -2.5950 o         1 MOL     -0.765461
     49 H21        -2.3390    3.5290   -1.6380 hn        1 MOL      0.235963
     50 H22        -4.2420    4.4490   -3.8280 h1        1 MOL      0.078523
     51 H23        -2.5210    3.0140   -4.6690 hc        1 MOL      0.101043
     52 H24        -4.1040    2.1260   -4.7690 hc        1 MOL      0.101043
     53 N5         -5.2030    2.6950   -1.3370 n         1 MOL     -0.070646
     54 C17        -6.2560    2.3260   -0.4630 c3        1 MOL     -0.246426
     55 C18        -6.3880    0.7980   -0.2450 c         1 MOL      0.515419
     56 O9         -7.2550    0.4160    0.5430 o         1 MOL     -0.579858
     57 H25        -4.2970    2.5830   -0.9060 hn        1 MOL      0.163489
     58 H26        -7.2070    2.7250   -0.8050 h1        1 MOL      0.125939
     59 H27        -5.9890    2.7590    0.5030 h1        1 MOL      0.125939
     60 N6         -5.6090   -0.0940   -0.8930 n         1 MOL     -0.118231
     61 C19        -5.9240   -1.4700   -0.9920 c3        1 MOL     -0.201668
     62 C20        -5.7810   -2.4240    0.1910 c         1 MOL      0.394629
     63 O10        -6.0760   -3.5790    0.0970 o         1 MOL     -0.445634
     64 C21        -5.2440   -1.9850   -2.2180 c3        1 MOL     -0.132136
     65 C22        -4.0410   -2.8890   -2.0280 c         1 MOL      0.367802
     66 N7         -3.8820   -3.8580   -2.9520 n         1 MOL     -0.535064
     67 O11        -3.1140   -2.6830   -1.2440 o         1 MOL     -0.495498
     68 H28        -4.8670    0.2340   -1.4940 hn        1 MOL      0.204357
     69 H29        -6.9900   -1.3220   -1.2160 h1        1 MOL      0.142257
     70 H30        -4.9020   -1.1260   -2.7940 hc        1 MOL      0.085959
     71 H31        -5.9510   -2.5180   -2.8540 hc        1 MOL      0.085959
     72 H32        -4.5290   -3.9880   -3.7190 hn        1 MOL      0.311342
     73 H33        -3.1620   -4.5460   -2.8050 hn        1 MOL      0.311342
     74 N8         -5.2810   -1.9050    1.3340 n         1 MOL     -0.131611
     75 C23        -5.0440   -2.6350    2.5630 c3        1 MOL     -0.300640
     76 C24        -3.6270   -3.2750    2.5590 c         1 MOL      0.690248
     77 O12        -3.3060   -3.9010    3.5500 o         1 MOL     -0.607849
     78 H34        -4.6980   -1.0820    1.2060 hn        1 MOL      0.145885
     79 H35        -5.7610   -3.4230    2.8030 h1        1 MOL      0.132393
     80 H36        -5.0480   -1.9710    3.4190 h1        1 MOL      0.132393
     81 N9         -2.7920   -3.0640    1.5460 n         1 MOL     -0.583968
     82 C25        -1.4480   -3.6500    1.5600 c3        1 MOL      0.285453
     83 C26        -0.3850   -2.6450    1.2930 c         1 MOL      0.351070
     84 O13        -0.6390   -1.6700    0.6250 o         1 MOL     -0.592347
     85 C27        -1.2510   -4.8700    0.6930 c3        1 MOL     -0.197302
     86 C28        -2.3530   -5.9570    0.7700 ca        1 MOL      0.217549
     87 C29        -3.6610   -5.8180    0.3140 ca        1 MOL     -0.252812
     88 C30        -1.9190   -7.2770    1.2040 ca        1 MOL     -0.252812
     89 C31        -4.5740   -6.9110    0.3850 ca        1 MOL     -0.206687
     90 C32        -2.8840   -8.2570    1.4120 ca        1 MOL     -0.206687
     91 C33        -4.2610   -8.1170    1.0480 ca        1 MOL      0.286119
     92 O14        -5.2810   -9.0020    1.3320 oh        1 MOL     -0.480128
     93 H37        -3.1550   -2.6310    0.7120 hn        1 MOL      0.527692
     94 H38        -1.2840   -3.9520    2.5920 h1        1 MOL      0.024563
     95 H39        -0.2850   -5.3280    0.9430 hc        1 MOL      0.039100
     96 H40        -1.0290   -4.5960   -0.3390 hc        1 MOL      0.039100
     97 H41        -3.9540   -4.8620   -0.1110 ha        1 MOL      0.138409
     98 H42        -0.8630   -7.4650    1.3080 ha        1 MOL      0.138409
     99 H43        -5.6300   -6.8190    0.1520 ha        1 MOL      0.122365
    100 H44        -2.5850   -9.2070    1.8210 ha        1 MOL      0.122365
    101 H45        -5.0250   -9.7780    1.8230 ho        1 MOL      0.371896
    102 N10         0.8330   -2.8810    1.7610 n         1 MOL     -0.384527
    103 C34         1.9880   -1.9490    1.6380 c3        1 MOL      0.060672
    104 C35         3.2010   -2.8670    1.3240 c         1 MOL      0.363503
    105 O15         3.4180   -3.7940    2.1750 o         1 MOL     -0.530479
    106 C36         2.2260   -1.1240    2.9130 c3        1 MOL      0.038520
    107 C37         1.0170   -0.3540    3.4300 c3        1 MOL     -0.019347
    108 C38         3.4150   -0.1600    2.6970 c3        1 MOL     -0.048494
    109 C39         1.2640    0.5980    4.6290 c3        1 MOL     -0.150444
    110 H46         0.8960   -3.6340    2.4290 hn        1 MOL      0.280839
    111 H47         1.9260   -1.3510    0.7240 h1        1 MOL      0.044365
    112 H48         2.4660   -1.8610    3.6700 hc        1 MOL      0.014421
    113 H49         0.3410   -1.1610    3.7230 hc        1 MOL      0.046267
    114 H50         0.6470    0.2650    2.6120 hc        1 MOL      0.046267
    115 H51         3.7130    0.3570    3.6060 hc        1 MOL      0.016927
    116 H52         4.2980   -0.6800    2.3230 hc        1 MOL      0.016927
    117 H53         3.1060    0.5130    1.9070 hc        1 MOL      0.016927
    118 H54         1.6950    1.5480    4.2900 hc        1 MOL      0.042399
    119 H55         0.3860    0.7030    5.2710 hc        1 MOL      0.042399
    120 H56         1.9320    0.1100    5.3420 hc        1 MOL      0.042399
    121 N11         3.9240   -2.5710    0.2540 n         1 MOL     -0.168679
    122 C40         5.2220   -3.1690    0.0290 c3        1 MOL     -0.036398
    123 C41         6.3500   -2.1590    0.3990 c         1 MOL      0.489876
    124 O16         6.0970   -0.9440    0.5670 o         1 MOL     -0.346586
    125 C42         5.2650   -3.5200   -1.4480 c3        1 MOL      0.169334
    126 O17         5.3510   -2.4030   -2.2740 oh        1 MOL     -0.528254
    127 H57         3.5970   -1.8530   -0.3730 hn        1 MOL      0.162637
    128 H58         5.3120   -4.0700    0.6430 h1        1 MOL      0.070427
    129 H59         4.4550   -4.2050   -1.7160 h1        1 MOL      0.013028
    130 H60         6.1880   -4.0650   -1.6300 h1        1 MOL      0.013028
    131 H61         4.4170   -2.2040   -2.4010 ho        1 MOL      0.373392
    132 N12         7.6380   -2.5940    0.5470 n         1 MOL     -0.515495
    133 C43         8.7430   -1.6470    0.7400 c3        1 MOL      0.107697
    134 C44         8.8590   -0.5740   -0.4440 c         1 MOL      0.596236
    135 O18         9.4860    0.4380   -0.1510 o         1 MOL     -0.556827
    136 C45         9.9600   -2.5000    0.7850 c3        1 MOL     -0.451587
    137 H62         7.7960   -3.5840    0.6790 hn        1 MOL      0.330629
    138 H63         8.6010   -1.0510    1.6460 h1        1 MOL      0.108102
    139 H64         9.9690   -3.2450   -0.0010 hc        1 MOL      0.132148
    140 H65        10.8100   -1.8160    0.7630 hc        1 MOL      0.132148
    141 H66        10.0610   -3.0430    1.7250 hc        1 MOL      0.132148
    142 N13         8.2730   -0.7840   -1.6040 n         1 MOL     -0.527352
    143 C46         8.1600    0.3510   -2.6040 c3        1 MOL      0.367135
    144 C47         7.0760    1.3900   -2.2800 c         1 MOL      0.311520
    145 O19         6.9970    2.4070   -2.8770 o         1 MOL     -0.540147
    146 C48         8.0490   -0.2880   -3.9640 c3        1 MOL     -0.240091
    147 H67         7.6530   -1.5710   -1.6380 hn        1 MOL      0.332248
    148 H68         9.1300    0.8470   -2.7300 h1        1 MOL      0.044368
    149 H69         7.1380   -0.8680   -4.0320 hc        1 MOL      0.062164
    150 H70         7.9080    0.4720   -4.7290 hc        1 MOL      0.062164
    151 H71         8.9720   -0.8810   -4.0270 hc        1 MOL      0.062164
    152 N14         6.2450    1.1730   -1.2620 n         1 MOL      0.227313
    153 C49         5.1390    1.9820   -0.7530 c3        1 MOL     -0.207739
    154 C50         5.3500    2.5390    0.6600 c         1 MOL      0.422327
    155 O20         4.5470    3.3540    1.1510 o         1 MOL     -0.531982
    156 C51         3.8900    1.0770   -0.8150 c3        1 MOL      0.178386
    157 C52         3.3530    0.7110   -2.2040 c3        1 MOL     -0.374425
    158 C53         2.2750   -0.4380   -2.0810 c         1 MOL      0.806817
    159 O21         1.0730   -0.1870   -1.8620 o         1 MOL     -0.715209
    160 O22         2.6290   -1.5930   -2.1730 o         1 MOL     -0.715209
    161 H72         6.5030    0.3520   -0.7390 hn        1 MOL     -0.424817
    162 H73         5.0400    2.8730   -1.3740 h1        1 MOL      0.138099
    163 H74         3.0530    1.4180   -0.2010 hc        1 MOL      0.029997
    164 H75         4.0950    0.1130   -0.3550 hc        1 MOL      0.029997
    165 H76         4.1280    0.3960   -2.9010 hc        1 MOL      0.094607
    166 H77         2.9040    1.6120   -2.6380 hc        1 MOL      0.094607
    167 N15         6.3560    2.0000    1.3610 n         1 MOL     -0.241611
    168 C54         6.5560    2.3430    2.8260 c3        1 MOL     -0.071054
    169 H78         7.5960    2.1690    3.1000 h1        1 MOL      0.067253
    170 H79         6.3070    3.3910    2.9910 h1        1 MOL      0.067253
    171 H80         5.9090    1.7140    3.4380 h1        1 MOL      0.067253
    172 H81         6.8880    1.2710    0.8980 hn        1 MOL      0.235168
    173 Ca1        -1.4130   -0.7610   -1.7160 Ca        1 MOL      1.766655
    174 O23         0.2700   -2.9370   -2.3470 oh        1 MOL     -0.834211
    175 H82         0.5300   -3.7480   -1.9050 ho        1 MOL      0.405066
    176 H83         1.0430   -2.3750   -2.2890 ho        1 MOL      0.405066
    177 O24        -1.9910   -1.5310   -4.4030 oh        1 MOL     -0.834211
    178 H84        -1.8800   -2.2140   -5.0540 ho        1 MOL      0.405066
    179 H85        -2.2280   -0.7530   -4.9070 ho        1 MOL      0.405066
@<TRIPOS>BOND
     1    1    2 1   
     2    1    4 1   
     3    1    5 1   
     4    1    6 1   
     5    2    3 2   
     6    2    7 1   
     7    7    8 1   
     8    7   15 1   
     9    8    9 1   
    10    8   11 1   
    11    8   16 1   
    12    9   10 2   
    13    9   19 1   
    14   11   12 1   
    15   11   17 1   
    16   11   18 1   
    17   12   13 1   
    18   12   14 1   
    19   19   20 1   
    20   19   28 1   
    21   20   21 1   
    22   20   23 1   
    23   20   29 1   
    24   21   22 2   
    25   21   41 1   
    26   23   24 1   
    27   23   30 1   
    28   23   31 1   
    29   24   25 1   
    30   24   32 1   
    31   24   33 1   
    32   25   26 1   
    33   25   34 1   
    34   25   35 1   
    35   26   27 1   
    36   26   36 1   
    37   26   37 1   
    38   27   38 1   
    39   27   39 1   
    40   27   40 1   
    41   41   42 1   
    42   41   49 1   
    43   42   43 1   
    44   42   45 1   
    45   42   50 1   
    46   43   44 2   
    47   43   53 1   
    48   45   46 1   
    49   45   51 1   
    50   45   52 1   
    51   46   47 1   
    52   46   48 1   
    53   53   54 1   
    54   53   57 1   
    55   54   55 1   
    56   54   58 1   
    57   54   59 1   
    58   55   56 2   
    59   55   60 1   
    60   60   61 1   
    61   60   68 1   
    62   61   62 1   
    63   61   64 1   
    64   61   69 1   
    65   62   63 2   
    66   62   74 1   
    67   64   65 1   
    68   64   70 1   
    69   64   71 1   
    70   65   66 1   
    71   65   67 2   
    72   66   72 1   
    73   66   73 1   
    74   74   75 1   
    75   74   78 1   
    76   75   76 1   
    77   75   79 1   
    78   75   80 1   
    79   76   77 2   
    80   76   81 1   
    81   81   82 1   
    82   81   93 1   
    83   82   83 1   
    84   82   85 1   
    85   82   94 1   
    86   83   84 2   
    87   83  102 1   
    88   85   86 1   
    89   85   95 1   
    90   85   96 1   
    91   86   87 ar  
    92   86   88 ar  
    93   87   89 ar  
    94   87   97 1   
    95   88   90 ar  
    96   88   98 1   
    97   89   91 ar  
    98   89   99 1   
    99   90   91 ar  
   100   90  100 1   
   101   91   92 1   
   102   92  101 1   
   103  102  103 1   
   104  102  110 1   
   105  103  104 1   
   106  103  106 1   
   107  103  111 1   
   108  104  105 2   
   109  104  121 1   
   110  106  107 1   
   111  106  108 1   
   112  106  112 1   
   113  107  109 1   
   114  107  113 1   
   115  107  114 1   
   116  108  115 1   
   117  108  116 1   
   118  108  117 1   
   119  109  118 1   
   120  109  119 1   
   121  109  120 1   
   122  121  122 1   
   123  121  127 1   
   124  122  123 1   
   125  122  125 1   
   126  122  128 1   
   127  123  124 2   
   128  123  132 1   
   129  125  126 1   
   130  125  129 1   
   131  125  130 1   
   132  126  131 1   
   133  132  133 1   
   134  132  137 1   
   135  133  134 1   
   136  133  136 1   
   137  133  138 1   
   138  134  135 2   
   139  134  142 1   
   140  136  139 1   
   141  136  140 1   
   142  136  141 1   
   143  142  143 1   
   144  142  147 1   
   145  143  144 1   
   146  143  146 1   
   147  143  148 1   
   148  144  145 2   
   149  144  152 1   
   150  146  149 1   
   151  146  150 1   
   152  146  151 1   
   153  152  153 1   
   154  152  161 1   
   155  153  154 1   
   156  153  156 1   
   157  153  162 1   
   158  154  155 2   
   159  154  167 1   
   160  156  157 1   
   161  156  163 1   
   162  156  164 1   
   163  157  158 1   
   164  157  165 1   
   165  157  166 1   
   166  158  159 1   
   167  158  160 1   
   168  167  168 1   
   169  167  172 1   
   170  168  169 1   
   171  168  170 1   
   172  168  171 1   
   173  174  175 1   
   174  174  176 1   
   175  177  178 1   
   176  177  179 1   
@<TRIPOS>SUBSTRUCTURE
     1 MOL         1 TEMP              0 ****  ****    0 ROOT
