@<TRIPOS>MOLECULE
MOL
  189   185     1     0     0
SMALL
resp


@<TRIPOS>ATOM
      1 C1          0.2780    1.7880    5.6760 c3        1 MOL     -0.299197
      2 C2         -0.1160    1.7570    4.1590 c         1 MOL      0.739485
      3 O1          0.7080    2.0160    3.2750 o         1 MOL     -0.647862
      4 H1          0.6710    0.8140    5.9690 hc        1 MOL      0.072250
      5 H2          1.0390    2.5510    5.8390 hc        1 MOL      0.072250
      6 H3         -0.6030    2.0190    6.2760 hc        1 MOL      0.072250
      7 N1         -1.3960    1.3410    3.9870 n         1 MOL     -0.655363
      8 C3         -2.0650    1.4070    2.6710 c3        1 MOL      0.272809
      9 C4         -2.4480    2.8350    2.3860 c         1 MOL      0.414100
     10 O2         -3.1600    3.4770    3.1740 o         1 MOL     -0.565817
     11 C5         -3.2920    0.4820    2.7220 c3        1 MOL     -0.563501
     12 C6         -3.9450    0.2520    1.3220 c         1 MOL      0.961701
     13 O3         -3.3660    0.7480    0.3410 o         1 MOL     -0.707537
     14 O4         -5.0580   -0.3350    1.3020 o         1 MOL     -0.707537
     15 H4         -1.9230    0.9330    4.7550 hn        1 MOL      0.352137
     16 H5         -1.2910    1.0600    1.9870 h1        1 MOL      0.037015
     17 H6         -4.0580    0.9130    3.3620 hc        1 MOL      0.143588
     18 H7         -2.9270   -0.5040    3.0320 hc        1 MOL      0.143588
     19 N2         -1.8910    3.3620    1.3240 n         1 MOL     -0.187606
     20 C7         -2.1380    4.7780    1.0040 c3        1 MOL      0.005111
     21 C8         -3.2920    4.9170    0.0520 c         1 MOL      0.346249
     22 O5         -3.9150    5.9930   -0.0200 o         1 MOL     -0.578911
     23 C9         -0.9000    5.5300    0.4370 c3        1 MOL     -0.164779
     24 C10         0.1770    5.4270    1.5100 c3        1 MOL      0.234098
     25 C11         1.2540    6.5200    1.5530 c3        1 MOL     -0.298872
     26 C12         0.6660    7.8260    2.1330 c3        1 MOL     -0.035459
     27 N3          0.0620    7.6290    3.5030 n4        1 MOL     -0.355919
     28 H8         -1.2610    2.7530    0.8160 hn        1 MOL      0.244041
     29 H9         -2.4720    5.2950    1.9000 h1        1 MOL      0.067272
     30 H10        -1.1270    6.5540    0.1370 hc        1 MOL      0.076759
     31 H11        -0.6000    5.0260   -0.4830 hc        1 MOL      0.076759
     32 H12         0.7530    4.5300    1.3130 hc        1 MOL     -0.028808
     33 H13        -0.3660    5.3110    2.4570 hc        1 MOL     -0.028808
     34 H14         1.5940    6.5780    0.5230 hc        1 MOL      0.117776
     35 H15         2.1290    6.1350    2.0790 hc        1 MOL      0.117776
     36 H16        -0.0300    8.3020    1.4330 hx        1 MOL      0.106220
     37 H17         1.4920    8.5280    2.2080 hx        1 MOL      0.106220
     38 H18        -0.1530    8.5380    3.8710 hn        1 MOL      0.335036
     39 H19        -0.7570    7.0280    3.4870 hn        1 MOL      0.335036
     40 H20         0.7340    7.1920    4.1110 hn        1 MOL      0.335036
     41 N4         -3.6400    3.9040   -0.7020 n         1 MOL     -0.050535
     42 C13        -4.6340    3.9080   -1.7760 c3        1 MOL     -0.087209
     43 C14        -5.9990    3.4090   -1.3190 c         1 MOL      0.466931
     44 O6         -6.9830    3.9090   -1.8390 o         1 MOL     -0.541394
     45 C15        -4.1670    2.9560   -2.8350 c3        1 MOL      0.071443
     46 C16        -2.6810    2.7800   -2.9410 c         1 MOL      0.569119
     47 O7         -2.1180    1.9040   -2.1870 o         1 MOL     -0.661715
     48 O8         -1.9120    3.5280   -3.5660 o         1 MOL     -0.661715
     49 H21        -3.1430    3.0370   -0.5680 hn        1 MOL      0.139721
     50 H22        -4.6590    4.9010   -2.2110 h1        1 MOL      0.105794
     51 H23        -4.5370    3.3610   -3.7730 hc        1 MOL     -0.008208
     52 H24        -4.6080    1.9670   -2.7100 hc        1 MOL     -0.008208
     53 N5         -6.0870    2.4830   -0.3800 n         1 MOL     -0.182635
     54 C17        -7.4020    1.7760   -0.1220 c3        1 MOL     -0.264289
     55 C18        -7.6080    0.5850   -1.0300 c         1 MOL      0.707031
     56 O9         -8.6990    0.5460   -1.5600 o         1 MOL     -0.598261
     57 H25        -5.1780    2.1810   -0.0520 hn        1 MOL      0.107263
     58 H26        -8.1930    2.4840   -0.3540 h1        1 MOL      0.121941
     59 H27        -7.4580    1.4700    0.9220 h1        1 MOL      0.121941
     60 N6         -6.7140   -0.3690   -1.0890 n         1 MOL     -0.324456
     61 C19        -6.8460   -1.6100   -1.9070 c3        1 MOL     -0.258954
     62 C20        -6.8240   -2.8770   -0.9680 c         1 MOL      0.606685
     63 O10        -6.8710   -4.0150   -1.4560 o         1 MOL     -0.560094
     64 C21        -5.7970   -1.6230   -2.9870 c3        1 MOL      0.153268
     65 C22        -4.3560   -1.4980   -2.5320 c         1 MOL      0.683017
     66 O11        -4.0410   -2.1040   -1.5030 o         1 MOL     -0.741030
     67 O12        -3.5790   -0.8170   -3.2350 o         1 MOL     -0.741030
     68 H28        -5.8760   -0.2580   -0.5390 hn        1 MOL      0.109954
     69 H29        -7.8330   -1.5010   -2.3680 h1        1 MOL      0.137314
     70 H30        -5.9120   -0.8300   -3.7290 hc        1 MOL     -0.009331
     71 H31        -5.8640   -2.5040   -3.6260 hc        1 MOL     -0.009331
     72 N7         -6.6870   -2.7210    0.3330 n         1 MOL     -0.438117
     73 C23        -6.5280   -3.8410    1.2590 c3        1 MOL     -0.060057
     74 C24        -5.1670   -4.6460    1.1990 c         1 MOL      0.464258
     75 O13        -5.0630   -5.6870    1.8690 o         1 MOL     -0.570407
     76 H32        -6.2530   -1.8310    0.5250 hn        1 MOL      0.314850
     77 H33        -7.3370   -4.5620    1.0980 h1        1 MOL      0.094164
     78 H34        -6.6030   -3.4170    2.2620 h1        1 MOL      0.094164
     79 N8         -4.1410   -4.1450    0.5640 n         1 MOL     -0.109496
     80 C25        -2.8110   -4.6850    0.5130 c3        1 MOL     -0.222735
     81 C26        -1.6950   -3.6550    0.7720 c         1 MOL      0.744915
     82 O14        -1.8770   -2.4840    0.5990 o         1 MOL     -0.695342
     83 C27        -2.4630   -5.3970   -0.7820 c3        1 MOL      0.428438
     84 C28        -2.8680   -6.8470   -0.7160 c3        1 MOL     -0.383874
     85 O15        -3.1700   -4.7900   -1.8180 oh        1 MOL     -0.585538
     86 H35        -4.2940   -3.1990    0.2530 hn        1 MOL      0.185116
     87 H36        -2.6740   -5.3370    1.3780 h1        1 MOL      0.105639
     88 H37        -1.3900   -5.4040   -0.9610 h1        1 MOL     -0.011175
     89 H38        -3.8810   -4.3480   -1.3520 ho        1 MOL      0.361659
     90 H39        -2.5740   -7.4150   -1.5960 hc        1 MOL      0.095761
     91 H40        -2.3980   -7.3260    0.1410 hc        1 MOL      0.095761
     92 H41        -3.9410   -7.0650   -0.7080 hc        1 MOL      0.095761
     93 N9         -0.5350   -4.1570    1.2330 n         1 MOL     -0.676870
     94 C29         0.6600   -3.3380    1.4950 c3        1 MOL     -0.062724
     95 C30         1.8440   -3.7290    0.5890 c         1 MOL      0.721773
     96 O16         2.2270   -4.8480    0.6280 o         1 MOL     -0.582296
     97 C31         1.0090   -3.3810    3.0750 c3        1 MOL      0.299122
     98 C32        -0.1940   -3.2840    4.0520 c3        1 MOL      0.078936
     99 C33         2.0910   -2.3610    3.4170 c3        1 MOL     -0.590837
    100 C34         0.1520   -3.3700    5.6170 c3        1 MOL     -0.384239
    101 H42        -0.6640   -5.0870    1.6300 hn        1 MOL      0.333095
    102 H43         0.4590   -2.2790    1.3090 h1        1 MOL      0.142796
    103 H44         1.4710   -4.3410    3.2820 hc        1 MOL     -0.031318
    104 H45        -0.9030   -4.0760    3.7680 hc        1 MOL     -0.005421
    105 H46        -0.7910   -2.3860    3.8690 hc        1 MOL     -0.005421
    106 H47         2.4030   -2.4900    4.4540 hc        1 MOL      0.133344
    107 H48         2.9740   -2.5500    2.8100 hc        1 MOL      0.133344
    108 H49         1.6880   -1.3650    3.2420 hc        1 MOL      0.133344
    109 H50         0.8250   -4.2040    5.8340 hc        1 MOL      0.105589
    110 H51         0.6640   -2.4800    5.9540 hc        1 MOL      0.105589
    111 H52        -0.8060   -3.4090    6.1360 hc        1 MOL      0.105589
    112 N10         2.3950   -2.7550   -0.1060 n         1 MOL     -0.356939
    113 C35         3.6400   -2.9380   -0.8770 c3        1 MOL     -0.136659
    114 C36         4.9600   -2.6740   -0.1020 c         1 MOL      0.479269
    115 O17         4.9950   -1.8510    0.7610 o         1 MOL     -0.325217
    116 C37         3.7050   -2.1320   -2.1810 c3        1 MOL      0.243812
    117 C38         2.5660   -2.6070   -3.1370 c3        1 MOL     -0.454646
    118 O18         3.2530   -0.7730   -2.0410 oh        1 MOL     -0.569915
    119 H53         1.9980   -1.8240   -0.1090 hn        1 MOL      0.197156
    120 H54         3.6770   -3.9900   -1.1890 h1        1 MOL      0.100133
    121 H55         4.6590   -2.2290   -2.7140 h1        1 MOL      0.087957
    122 H56         2.4160   -0.6720   -1.5930 ho        1 MOL      0.370364
    123 H57         2.6730   -3.6800   -3.3200 hc        1 MOL      0.122111
    124 H58         1.5600   -2.4240   -2.7660 hc        1 MOL      0.122111
    125 H59         2.6100   -2.1100   -4.1060 hc        1 MOL      0.122111
    126 N11         6.0630   -3.2250   -0.5910 n         1 MOL     -0.377105
    127 C39         7.4170   -2.7740   -0.1930 c3        1 MOL     -0.152922
    128 C40         7.6470   -1.2330   -0.2830 c         1 MOL      0.391599
    129 O19         8.2620   -0.6200    0.6020 o         1 MOL     -0.463456
    130 C41         8.5090   -3.5440   -0.9440 c3        1 MOL      0.315743
    131 C42         8.6660   -4.9900   -0.5330 c3        1 MOL     -0.442638
    132 O20         8.1950   -3.4140   -2.3350 oh        1 MOL     -0.674134
    133 H60         5.9960   -3.8450   -1.3860 hn        1 MOL      0.292097
    134 H61         7.5510   -2.9260    0.8750 h1        1 MOL      0.146616
    135 H62         9.4480   -3.0370   -0.7410 h1        1 MOL      0.056536
    136 H63         8.7840   -3.9830   -2.8360 ho        1 MOL      0.435951
    137 H64         9.6710   -5.2860   -0.8470 hc        1 MOL      0.127741
    138 H65         8.5630   -5.1260    0.5450 hc        1 MOL      0.127741
    139 H66         7.9200   -5.5540   -1.0950 hc        1 MOL      0.127741
    140 N12         7.0730   -0.5500   -1.3240 n         1 MOL     -0.202433
    141 C43         7.1000    0.8950   -1.4200 c3        1 MOL     -0.226522
    142 C44         6.2240    1.5160   -0.3350 c         1 MOL      0.431555
    143 O21         6.6280    2.5580    0.2330 o         1 MOL     -0.570044
    144 C45         6.4920    1.3290   -2.7460 c3        1 MOL     -0.100513
    145 C46         6.4770    2.9100   -3.0560 c3        1 MOL     -0.085938
    146 C47         5.7130    3.2140   -4.2910 c3        1 MOL     -0.033723
    147 C48         6.2460    4.5820   -4.8730 c3        1 MOL     -0.015139
    148 N13         5.7320    5.7690   -4.1840 n4        1 MOL     -0.331307
    149 H67         6.6320   -1.0500   -2.0820 hn        1 MOL      0.251825
    150 H68         8.1200    1.2460   -1.2530 h1        1 MOL      0.168680
    151 H69         5.5570    0.7920   -2.8210 hc        1 MOL      0.074098
    152 H70         7.0220    0.7190   -3.4870 hc        1 MOL      0.074098
    153 H71         7.5360    3.1470   -2.9690 hc        1 MOL      0.054979
    154 H72         5.9360    3.2870   -2.1790 hc        1 MOL      0.054979
    155 H73         4.6310    3.3040   -4.1820 hc        1 MOL      0.066430
    156 H74         5.8850    2.3150   -4.8890 hc        1 MOL      0.066430
    157 H75         5.9340    4.5760   -5.9140 hx        1 MOL      0.086668
    158 H76         7.3330    4.6160   -4.7380 hx        1 MOL      0.086668
    159 H77         6.3020    6.5320   -4.5160 hn        1 MOL      0.309703
    160 H78         4.7630    5.8860   -4.4530 hn        1 MOL      0.309703
    161 H79         5.7180    5.6860   -3.1790 hn        1 MOL      0.309703
    162 N14         5.1380    0.9020    0.1210 n         1 MOL      0.339670
    163 C49         4.3230    1.4100    1.2140 c3        1 MOL     -0.636908
    164 C50         5.0240    1.2100    2.5690 c         1 MOL      0.671070
    165 O22         4.8260    2.0610    3.3990 o         1 MOL     -0.568801
    166 C51         2.8500    0.8520    1.2060 c3        1 MOL      0.296309
    167 C52         2.0080    1.5880    0.0550 c3        1 MOL     -0.150733
    168 C53         0.7420    0.7850   -0.2520 c         1 MOL      0.783603
    169 O23         0.8700   -0.3890   -0.6370 o         1 MOL     -0.754405
    170 O24        -0.3850    1.2910   -0.1170 o         1 MOL     -0.754405
    171 H80         4.9010    0.0260   -0.3150 hn        1 MOL     -0.243100
    172 H81         4.2940    2.4930    1.0610 h1        1 MOL      0.168970
    173 H82         2.4080    0.9400    2.1940 hc        1 MOL      0.024267
    174 H83         2.9180   -0.2080    0.9380 hc        1 MOL      0.024267
    175 H84         2.6120    1.6910   -0.8440 hc        1 MOL      0.033968
    176 H85         1.6770    2.5380    0.4720 hc        1 MOL      0.033968
    177 N15         5.6980    0.0960    2.8400 n         1 MOL     -0.258131
    178 C54         6.5210   -0.2350    4.0420 c3        1 MOL     -0.334612
    179 H86         6.8860   -1.2590    3.9610 h1        1 MOL      0.132960
    180 H87         7.3680    0.4480    4.1030 h1        1 MOL      0.132960
    181 H88         5.9100   -0.1390    4.9390 h1        1 MOL      0.132960
    182 H89         5.8150   -0.5600    2.0930 hn        1 MOL      0.214231
    183 Ca1        -1.8440   -0.5810   -1.2660 Ca        1 MOL      1.735402
    184 O25        -0.6030    0.0560   -3.6370 oh        1 MOL     -0.792005
    185 H90        -0.6310    1.0200   -3.5870 ho        1 MOL      0.389673
    186 H91        -0.3630   -0.1330   -4.5360 ho        1 MOL      0.389673
    187 O26        -1.2460   -2.8300   -2.5820 oh        1 MOL     -0.792005
    188 H92        -1.8480   -3.5730   -2.5260 ho        1 MOL      0.389673
    189 H93        -0.7210   -3.0120   -3.3630 ho        1 MOL      0.389673
@<TRIPOS>BOND
     1    1    2 1   
     2    1    4 1   
     3    1    5 1   
     4    1    6 1   
     5    2    3 2   
     6    2    7 1   
     7    7    8 1   
     8    7   15 1   
     9    8    9 1   
    10    8   11 1   
    11    8   16 1   
    12    9   10 2   
    13    9   19 1   
    14   11   12 1   
    15   11   17 1   
    16   11   18 1   
    17   12   13 1   
    18   12   14 1   
    19   19   20 1   
    20   19   28 1   
    21   20   21 1   
    22   20   23 1   
    23   20   29 1   
    24   21   22 2   
    25   21   41 1   
    26   23   24 1   
    27   23   30 1   
    28   23   31 1   
    29   24   25 1   
    30   24   32 1   
    31   24   33 1   
    32   25   26 1   
    33   25   34 1   
    34   25   35 1   
    35   26   27 1   
    36   26   36 1   
    37   26   37 1   
    38   27   38 1   
    39   27   39 1   
    40   27   40 1   
    41   41   42 1   
    42   41   49 1   
    43   42   43 1   
    44   42   45 1   
    45   42   50 1   
    46   43   44 2   
    47   43   53 1   
    48   45   46 1   
    49   45   51 1   
    50   45   52 1   
    51   46   47 1   
    52   46   48 1   
    53   53   54 1   
    54   53   57 1   
    55   54   55 1   
    56   54   58 1   
    57   54   59 1   
    58   55   56 2   
    59   55   60 1   
    60   60   61 1   
    61   60   68 1   
    62   61   62 1   
    63   61   64 1   
    64   61   69 1   
    65   62   63 2   
    66   62   72 1   
    67   64   65 1   
    68   64   70 1   
    69   64   71 1   
    70   65   66 1   
    71   65   67 1   
    72   72   73 1   
    73   72   76 1   
    74   73   74 1   
    75   73   77 1   
    76   73   78 1   
    77   74   75 2   
    78   74   79 1   
    79   79   80 1   
    80   79   86 1   
    81   80   81 1   
    82   80   83 1   
    83   80   87 1   
    84   81   82 2   
    85   81   93 1   
    86   83   84 1   
    87   83   85 1   
    88   83   88 1   
    89   84   90 1   
    90   84   91 1   
    91   84   92 1   
    92   85   89 1   
    93   93   94 1   
    94   93  101 1   
    95   94   95 1   
    96   94   97 1   
    97   94  102 1   
    98   95   96 2   
    99   95  112 1   
   100   97   98 1   
   101   97   99 1   
   102   97  103 1   
   103   98  100 1   
   104   98  104 1   
   105   98  105 1   
   106   99  106 1   
   107   99  107 1   
   108   99  108 1   
   109  100  109 1   
   110  100  110 1   
   111  100  111 1   
   112  112  113 1   
   113  112  119 1   
   114  113  114 1   
   115  113  116 1   
   116  113  120 1   
   117  114  115 2   
   118  114  126 1   
   119  116  117 1   
   120  116  118 1   
   121  116  121 1   
   122  117  123 1   
   123  117  124 1   
   124  117  125 1   
   125  118  122 1   
   126  126  127 1   
   127  126  133 1   
   128  127  128 1   
   129  127  130 1   
   130  127  134 1   
   131  128  129 2   
   132  128  140 1   
   133  130  131 1   
   134  130  132 1   
   135  130  135 1   
   136  131  137 1   
   137  131  138 1   
   138  131  139 1   
   139  132  136 1   
   140  140  141 1   
   141  140  149 1   
   142  141  142 1   
   143  141  144 1   
   144  141  150 1   
   145  142  143 2   
   146  142  162 1   
   147  144  145 1   
   148  144  151 1   
   149  144  152 1   
   150  145  146 1   
   151  145  153 1   
   152  145  154 1   
   153  146  147 1   
   154  146  155 1   
   155  146  156 1   
   156  147  148 1   
   157  147  157 1   
   158  147  158 1   
   159  148  159 1   
   160  148  160 1   
   161  148  161 1   
   162  162  163 1   
   163  162  171 1   
   164  163  164 1   
   165  163  166 1   
   166  163  172 1   
   167  164  165 2   
   168  164  177 1   
   169  166  167 1   
   170  166  173 1   
   171  166  174 1   
   172  167  168 1   
   173  167  175 1   
   174  167  176 1   
   175  168  169 1   
   176  168  170 1   
   177  177  178 1   
   178  177  182 1   
   179  178  179 1   
   180  178  180 1   
   181  178  181 1   
   182  184  185 1   
   183  184  186 1   
   184  187  188 1   
   185  187  189 1   
@<TRIPOS>SUBSTRUCTURE
     1 MOL         1 TEMP              0 ****  ****    0 ROOT
