@<TRIPOS>MOLECULE
MOL
  175   173     1     0     0
SMALL
resp


@<TRIPOS>ATOM
      1 C1          0.6380    4.1210    5.5990 c3        1 MOL     -0.368186
      2 C2          0.1220    4.1680    4.1560 c         1 MOL      0.733047
      3 O1          0.8820    4.3770    3.2480 o         1 MOL     -0.544602
      4 H1          0.1490    3.3060    6.1330 hc        1 MOL      0.090927
      5 H2          1.7160    3.9560    5.5950 hc        1 MOL      0.090927
      6 H3          0.4170    5.0650    6.0960 hc        1 MOL      0.090927
      7 N1         -1.2010    4.0360    3.8870 n         1 MOL     -0.693387
      8 C3         -1.8910    3.7350    2.5960 c3        1 MOL      0.317344
      9 C4         -1.8160    4.8740    1.5620 c         1 MOL      0.532611
     10 O2         -2.2370    6.0350    1.8980 o         1 MOL     -0.591527
     11 C5         -3.2760    3.1610    2.8490 c3        1 MOL     -0.186225
     12 C6         -3.9370    2.8930    1.4380 c         1 MOL      0.652878
     13 O3         -4.8290    3.7460    1.1170 o         1 MOL     -0.584685
     14 O4         -3.4150    2.0340    0.6630 o         1 MOL     -0.584685
     15 H4         -1.7380    3.8750    4.7150 hn        1 MOL      0.308036
     16 H5         -1.3240    2.9390    2.1250 h1        1 MOL     -0.041218
     17 H6         -3.9000    3.7370    3.5200 hc        1 MOL      0.010398
     18 H7         -3.2180    2.1480    3.2470 hc        1 MOL      0.010398
     19 N2         -1.6710    4.5330    0.3250 n         1 MOL     -0.492606
     20 C7         -2.0000    5.5490   -0.7560 c3        1 MOL      0.286786
     21 C8         -3.1840    5.1550   -1.6460 c         1 MOL      0.356991
     22 O5         -3.6930    6.0970   -2.2990 o         1 MOL     -0.614917
     23 C9         -0.7730    5.5730   -1.7710 c3        1 MOL     -0.341212
     24 H8         -1.4040    3.5910    0.0670 hn        1 MOL      0.262662
     25 H9         -2.1150    6.5740   -0.3990 h1        1 MOL      0.065881
     26 H10         0.1400    5.9670   -1.3200 hc        1 MOL      0.084851
     27 H11        -0.6060    4.5850   -2.1920 hc        1 MOL      0.084851
     28 H12        -0.9060    6.3150   -2.5590 hc        1 MOL      0.084851
     29 N3         -3.7470    3.9780   -1.7090 n         1 MOL     -0.029635
     30 C10        -4.7140    3.5420   -2.7550 c3        1 MOL      0.016161
     31 C11        -5.8350    2.6530   -2.1740 c         1 MOL      0.335903
     32 O6         -6.6950    2.2690   -2.9470 o         1 MOL     -0.569827
     33 C12        -3.9810    2.6530   -3.7850 c3        1 MOL     -0.099826
     34 C13        -3.1770    1.4290   -3.2700 c         1 MOL      0.561932
     35 O7         -3.5400    0.8780   -2.1970 o         1 MOL     -0.634991
     36 O8         -2.0630    1.1440   -3.7940 o         1 MOL     -0.634991
     37 H13        -3.3220    3.2690   -1.1320 hn        1 MOL      0.197042
     38 H14        -5.1530    4.4090   -3.2470 h1        1 MOL      0.101149
     39 H15        -3.3330    3.2890   -4.3920 hc        1 MOL      0.023353
     40 H16        -4.7590    2.2790   -4.4490 hc        1 MOL      0.023353
     41 N4         -5.8390    2.2390   -0.9220 n         1 MOL      0.174656
     42 C14        -6.9410    1.5500   -0.2410 c3        1 MOL     -0.171095
     43 C15        -7.2240    0.1110   -0.6190 c         1 MOL      0.500862
     44 O9         -8.2030   -0.5380   -0.2400 o         1 MOL     -0.607329
     45 H17        -5.0520    2.5270   -0.3720 hn        1 MOL     -0.258973
     46 H18        -7.8830    2.1020   -0.3340 h1        1 MOL      0.080025
     47 H19        -6.7320    1.5270    0.8290 h1        1 MOL      0.080025
     48 N5         -6.2470   -0.3450   -1.3800 n         1 MOL     -0.198204
     49 C16        -6.2920   -1.6800   -1.9430 c3        1 MOL      0.032900
     50 C17        -6.3200   -2.9100   -0.9900 c         1 MOL      0.341870
     51 O10        -6.5140   -4.0750   -1.3660 o         1 MOL     -0.524376
     52 C18        -5.2540   -1.8400   -3.0160 c3        1 MOL     -0.215223
     53 C19        -3.8160   -2.1670   -2.5230 c         1 MOL      0.615829
     54 N6         -2.9180   -2.4040   -3.4660 n         1 MOL     -0.657854
     55 O11        -3.4690   -2.1540   -1.3600 o         1 MOL     -0.560777
     56 H20        -5.5490    0.2840   -1.7410 hn        1 MOL      0.159345
     57 H21        -7.2290   -1.7000   -2.5020 h1        1 MOL      0.081874
     58 H22        -5.2520   -0.9500   -3.6440 hc        1 MOL      0.078735
     59 H23        -5.5730   -2.6390   -3.6850 hc        1 MOL      0.078735
     60 H24        -3.2070   -2.3520   -4.4300 hn        1 MOL      0.329352
     61 H25        -1.9410   -2.5100   -3.2660 hn        1 MOL      0.329352
     62 N7         -6.2030   -2.6490    0.2820 n         1 MOL      0.005621
     63 C20        -6.3620   -3.5820    1.4190 c3        1 MOL     -0.404571
     64 C21        -5.1570   -4.3550    1.8220 c         1 MOL      0.711949
     65 O12        -5.2380   -5.2400    2.6470 o         1 MOL     -0.604935
     66 H26        -5.8940   -1.7160    0.4990 hn        1 MOL      0.139229
     67 H27        -7.1530   -4.2890    1.1820 h1        1 MOL      0.140081
     68 H28        -6.6280   -2.9590    2.2730 h1        1 MOL      0.140081
     69 N8         -4.0230   -3.8970    1.3400 n         1 MOL     -0.501283
     70 C22        -2.7560   -4.7030    1.4710 c3        1 MOL     -0.159629
     71 C23        -1.6090   -3.7330    1.4610 c         1 MOL      0.620357
     72 O13        -1.6830   -2.7020    0.8190 o         1 MOL     -0.532376
     73 C24        -2.5870   -5.6410    0.3580 c3        1 MOL      0.446956
     74 C25        -3.4750   -6.8590    0.2890 c3        1 MOL     -0.324067
     75 O14        -2.9210   -5.0150   -0.8330 oh        1 MOL     -0.587664
     76 H29        -3.9950   -3.1090    0.7160 hn        1 MOL      0.367947
     77 H30        -2.7230   -5.2770    2.3960 h1        1 MOL      0.091874
     78 H31        -1.5720   -6.0220    0.3270 h1        1 MOL     -0.032699
     79 H32        -2.5960   -4.1010   -0.8080 ho        1 MOL      0.354747
     80 H33        -3.3900   -7.4050    1.2220 hc        1 MOL      0.081561
     81 H34        -4.5050   -6.5980    0.0570 hc        1 MOL      0.081561
     82 H35        -3.1710   -7.6440   -0.4050 hc        1 MOL      0.081561
     83 N9         -0.4960   -3.9960    2.1690 n         1 MOL     -0.511164
     84 C26         0.6450   -3.1240    2.0670 c3        1 MOL      0.136965
     85 C27         1.4500   -3.2430    0.7390 c         1 MOL      0.499447
     86 O15         1.8100   -4.3060    0.3250 o         1 MOL     -0.585946
     87 C28         1.5280   -3.1930    3.2800 c3        1 MOL     -0.000017
     88 C29         1.0840   -2.1300    4.2970 c3        1 MOL      0.117642
     89 C30         3.0190   -2.9830    3.0500 c3        1 MOL     -0.159500
     90 C31         1.7040   -2.3150    5.6970 c3        1 MOL     -0.131553
     91 H36        -0.4930   -4.8760    2.6500 hn        1 MOL      0.263050
     92 H37         0.1990   -2.1380    2.1320 h1        1 MOL     -0.027584
     93 H38         1.4380   -4.1590    3.7880 hc        1 MOL      0.036720
     94 H39         0.0140   -2.2440    4.4530 hc        1 MOL     -0.039924
     95 H40         1.3030   -1.1430    3.8800 hc        1 MOL     -0.039924
     96 H41         3.3760   -3.5620    2.1980 hc        1 MOL      0.032030
     97 H42         3.1860   -1.9450    2.7810 hc        1 MOL      0.032030
     98 H43         3.6840   -3.2340    3.8800 hc        1 MOL      0.032030
     99 H44         2.7770   -2.1440    5.6990 hc        1 MOL      0.023294
    100 H45         1.3420   -1.5160    6.3490 hc        1 MOL      0.023294
    101 H46         1.5340   -3.3260    6.0680 hc        1 MOL      0.023294
    102 N10         1.5830   -2.1410    0.0320 n         1 MOL     -0.201097
    103 C32         2.5000   -2.0970   -1.1430 c3        1 MOL      0.046788
    104 C33         3.9070   -1.7100   -0.8090 c         1 MOL      0.511705
    105 O16         4.0840   -1.1490    0.2540 o         1 MOL     -0.384694
    106 C34         1.8250   -1.0960   -2.1520 c3        1 MOL     -0.300493
    107 C35         0.4390   -1.5150   -2.5790 c         1 MOL      0.722040
    108 O17        -0.5660   -1.4070   -1.8710 o         1 MOL     -0.686032
    109 O18         0.3290   -2.0410   -3.7620 o         1 MOL     -0.686032
    110 H47         1.1710   -1.2920    0.3950 hn        1 MOL      0.200205
    111 H48         2.5080   -3.0450   -1.6810 h1        1 MOL      0.070190
    112 H49         2.3390   -1.0610   -3.1090 hc        1 MOL      0.093052
    113 H50         1.7090   -0.1150   -1.7160 hc        1 MOL      0.093052
    114 N11         4.8250   -1.7930   -1.7650 n         1 MOL     -0.760781
    115 C36         6.2430   -1.6090   -1.3990 c3        1 MOL      0.564453
    116 C37         6.5580   -0.2160   -0.9320 c         1 MOL      0.236456
    117 O19         7.1240   -0.0750    0.1360 o         1 MOL     -0.494994
    118 C38         7.1900   -2.1940   -2.4870 c3        1 MOL     -0.185516
    119 C39         8.6400   -1.9970   -2.3250 ca        1 MOL      0.090869
    120 C40         9.2830   -2.4130   -1.1300 ca        1 MOL     -0.179710
    121 C41         9.3170   -1.2570   -3.3110 ca        1 MOL     -0.179710
    122 C42        10.6030   -1.9990   -0.8880 ca        1 MOL     -0.107979
    123 C43        10.6660   -0.8420   -3.0760 ca        1 MOL     -0.107979
    124 C44        11.3060   -1.2550   -1.8940 ca        1 MOL     -0.121064
    125 H51         4.6850   -2.2320   -2.6660 hn        1 MOL      0.353846
    126 H52         6.4100   -2.2580   -0.5430 h1        1 MOL     -0.009400
    127 H53         6.8700   -1.8010   -3.4520 hc        1 MOL      0.043575
    128 H54         6.9670   -3.2620   -2.4990 hc        1 MOL      0.043575
    129 H55         8.7530   -2.8580   -0.3000 ha        1 MOL      0.128727
    130 H56         8.9470   -1.0520   -4.3000 ha        1 MOL      0.128727
    131 H57        11.1970   -2.1500   -0.0000 ha        1 MOL      0.115760
    132 H58        11.2210   -0.1900   -3.7470 ha        1 MOL      0.115760
    133 H59        12.3370   -0.9560   -1.7770 ha        1 MOL      0.098792
    134 N12         6.1880    0.8960   -1.5790 n         1 MOL     -0.060623
    135 C45         6.5440    2.2610   -1.0760 c3        1 MOL      0.006358
    136 C46         5.8050    2.6590    0.1650 c         1 MOL      0.311940
    137 O20         6.2450    3.5940    0.8240 o         1 MOL     -0.496311
    138 C47         6.1140    3.1310   -2.2410 c3        1 MOL     -0.210094
    139 C48         6.1000    2.3280   -3.5300 c3        1 MOL      0.124623
    140 C49         5.6280    1.0130   -2.9760 c3        1 MOL      0.088919
    141 H60         7.6090    2.3470   -0.9030 h1        1 MOL      0.098156
    142 H61         5.0970    3.4870   -2.0450 hc        1 MOL      0.071292
    143 H62         6.8470    3.9050   -2.4430 hc        1 MOL      0.071292
    144 H63         5.4740    2.7470   -4.3150 hc        1 MOL     -0.013108
    145 H64         7.1020    2.1770   -3.9280 hc        1 MOL     -0.013108
    146 H65         4.5690    0.8020   -3.0920 h1        1 MOL     -0.020011
    147 H66         6.1870    0.3110   -3.5970 h1        1 MOL     -0.020011
    148 N13         4.7170    1.9380    0.5040 n         1 MOL     -0.079981
    149 C50         4.0560    2.0960    1.7620 c3        1 MOL     -0.050397
    150 C51         4.8810    1.3730    2.8770 c         1 MOL      0.471256
    151 O21         5.0760    1.9850    3.9390 o         1 MOL     -0.571116
    152 C52         2.6600    1.5920    1.7870 c3        1 MOL      0.023679
    153 C53         1.8090    2.1510    0.6750 c3        1 MOL     -0.133881
    154 C54         0.4680    1.4010    0.5070 c         1 MOL      0.653912
    155 O22         0.2620    0.2050    0.9030 o         1 MOL     -0.694471
    156 O23        -0.3880    1.8980   -0.2670 o         1 MOL     -0.694471
    157 H67         4.4020    1.2320   -0.1410 hn        1 MOL      0.143851
    158 H68         4.1480    3.1290    2.0850 h1        1 MOL      0.078183
    159 H69         2.1900    1.9460    2.7110 hc        1 MOL      0.015731
    160 H70         2.7380    0.5030    1.8110 hc        1 MOL      0.015731
    161 H71         2.2520    2.1040   -0.3170 hc        1 MOL      0.059550
    162 H72         1.6720    3.2170    0.8970 hc        1 MOL      0.059550
    163 N14         5.3270    0.1490    2.6410 n         1 MOL     -0.092949
    164 C55         6.2990   -0.4780    3.5630 c3        1 MOL     -0.165215
    165 H73         5.7900   -1.2230    4.1760 h1        1 MOL      0.071873
    166 H74         7.0890   -0.9620    2.9870 h1        1 MOL      0.071873
    167 H75         6.7350    0.2860    4.2080 h1        1 MOL      0.071873
    168 H76         4.9990   -0.3330    1.8060 hn        1 MOL      0.092098
    169 Ca1        -2.1040   -0.0550   -0.2360 Ca        1 MOL      1.658802
    170 O24        -4.3810   -0.6580    1.4850 oh        1 MOL     -0.820287
    171 H77        -3.8510   -0.5950    2.2730 ho        1 MOL      0.400683
    172 H78        -5.2510   -0.3550    1.7470 ho        1 MOL      0.400683
    173 O25        -1.8270   -0.3090    2.3910 oh        1 MOL     -0.820287
    174 H79        -0.8820   -0.1850    2.3920 ho        1 MOL      0.400683
    175 H80        -2.0990   -0.1280    3.2880 ho        1 MOL      0.400683
@<TRIPOS>BOND
     1    1    2 1   
     2    1    4 1   
     3    1    5 1   
     4    1    6 1   
     5    2    3 2   
     6    2    7 1   
     7    7    8 1   
     8    7   15 1   
     9    8    9 1   
    10    8   11 1   
    11    8   16 1   
    12    9   10 2   
    13    9   19 1   
    14   11   12 1   
    15   11   17 1   
    16   11   18 1   
    17   12   13 1   
    18   12   14 1   
    19   19   20 1   
    20   19   24 1   
    21   20   21 1   
    22   20   23 1   
    23   20   25 1   
    24   21   22 2   
    25   21   29 1   
    26   23   26 1   
    27   23   27 1   
    28   23   28 1   
    29   29   30 1   
    30   29   37 1   
    31   30   31 1   
    32   30   33 1   
    33   30   38 1   
    34   31   32 2   
    35   31   41 1   
    36   33   34 1   
    37   33   39 1   
    38   33   40 1   
    39   34   35 1   
    40   34   36 1   
    41   41   42 1   
    42   41   45 1   
    43   42   43 1   
    44   42   46 1   
    45   42   47 1   
    46   43   44 2   
    47   43   48 1   
    48   48   49 1   
    49   48   56 1   
    50   49   50 1   
    51   49   52 1   
    52   49   57 1   
    53   50   51 2   
    54   50   62 1   
    55   52   53 1   
    56   52   58 1   
    57   52   59 1   
    58   53   54 1   
    59   53   55 2   
    60   54   60 1   
    61   54   61 1   
    62   62   63 1   
    63   62   66 1   
    64   63   64 1   
    65   63   67 1   
    66   63   68 1   
    67   64   65 2   
    68   64   69 1   
    69   69   70 1   
    70   69   76 1   
    71   70   71 1   
    72   70   73 1   
    73   70   77 1   
    74   71   72 2   
    75   71   83 1   
    76   73   74 1   
    77   73   75 1   
    78   73   78 1   
    79   74   80 1   
    80   74   81 1   
    81   74   82 1   
    82   75   79 1   
    83   83   84 1   
    84   83   91 1   
    85   84   85 1   
    86   84   87 1   
    87   84   92 1   
    88   85   86 2   
    89   85  102 1   
    90   87   88 1   
    91   87   89 1   
    92   87   93 1   
    93   88   90 1   
    94   88   94 1   
    95   88   95 1   
    96   89   96 1   
    97   89   97 1   
    98   89   98 1   
    99   90   99 1   
   100   90  100 1   
   101   90  101 1   
   102  102  103 1   
   103  102  110 1   
   104  103  104 1   
   105  103  106 1   
   106  103  111 1   
   107  104  105 2   
   108  104  114 1   
   109  106  107 1   
   110  106  112 1   
   111  106  113 1   
   112  107  108 1   
   113  107  109 1   
   114  114  115 1   
   115  114  125 1   
   116  115  116 1   
   117  115  118 1   
   118  115  126 1   
   119  116  117 2   
   120  116  134 1   
   121  118  119 1   
   122  118  127 1   
   123  118  128 1   
   124  119  120 ar  
   125  119  121 ar  
   126  120  122 ar  
   127  120  129 1   
   128  121  123 ar  
   129  121  130 1   
   130  122  124 ar  
   131  122  131 1   
   132  123  124 ar  
   133  123  132 1   
   134  124  133 1   
   135  134  135 1   
   136  134  140 1   
   137  135  136 1   
   138  135  138 1   
   139  135  141 1   
   140  136  137 2   
   141  136  148 1   
   142  138  139 1   
   143  138  142 1   
   144  138  143 1   
   145  139  140 1   
   146  139  144 1   
   147  139  145 1   
   148  140  146 1   
   149  140  147 1   
   150  148  149 1   
   151  148  157 1   
   152  149  150 1   
   153  149  152 1   
   154  149  158 1   
   155  150  151 2   
   156  150  163 1   
   157  152  153 1   
   158  152  159 1   
   159  152  160 1   
   160  153  154 1   
   161  153  161 1   
   162  153  162 1   
   163  154  155 1   
   164  154  156 1   
   165  163  164 1   
   166  163  168 1   
   167  164  165 1   
   168  164  166 1   
   169  164  167 1   
   170  170  171 1   
   171  170  172 1   
   172  173  174 1   
   173  173  175 1   
@<TRIPOS>SUBSTRUCTURE
     1 MOL         1 TEMP              0 ****  ****    0 ROOT
