@<TRIPOS>MOLECULE
MOL
  179   176     1     0     0
SMALL
resp


@<TRIPOS>ATOM
      1 C1         -2.1460    3.7200   -3.9170 c3        1 MOL     -0.443229
      2 C2         -1.0950    3.5910   -2.7540 c         1 MOL      0.680346
      3 O1         -1.4590    3.8250   -1.5970 o         1 MOL     -0.559755
      4 H1         -2.3430    4.7750   -4.1120 hc        1 MOL      0.117148
      5 H2         -1.7500    3.2530   -4.8190 hc        1 MOL      0.117148
      6 H3         -3.0720    3.2250   -3.6270 hc        1 MOL      0.117148
      7 N1          0.1220    3.0900   -3.0630 n         1 MOL     -0.661988
      8 C3          1.0620    2.7160   -1.9900 c3        1 MOL      0.271736
      9 C4          1.7350    3.8970   -1.3190 c         1 MOL      0.436266
     10 O2          2.8260    4.1630   -1.6570 o         1 MOL     -0.542749
     11 C5          1.9970    1.6610   -2.5420 c3        1 MOL      0.035616
     12 C6          2.8740    1.0400   -1.4030 c         1 MOL      0.533059
     13 O3          2.5950    1.1080   -0.2010 o         1 MOL     -0.601915
     14 O4          3.8120    0.2820   -1.7130 o         1 MOL     -0.601915
     15 H4          0.3240    2.8190   -4.0150 hn        1 MOL      0.329344
     16 H5          0.4720    2.1770   -1.2470 h1        1 MOL     -0.051050
     17 H6          2.6390    2.0830   -3.3190 hc        1 MOL     -0.009609
     18 H7          1.4220    0.8470   -2.9850 hc        1 MOL     -0.009609
     19 N2          1.1040    4.5910   -0.4060 n         1 MOL     -0.100531
     20 C7          1.5590    5.9010    0.0390 c3        1 MOL     -0.046167
     21 C8          2.5750    5.9380    1.2430 c         1 MOL      0.392014
     22 O5          3.4110    6.8260    1.3740 o         1 MOL     -0.524489
     23 C9          0.3270    6.6840    0.3470 c3        1 MOL     -0.393377
     24 C10        -0.3790    7.2460   -0.8740 c3        1 MOL      0.025373
     25 C11         0.4140    8.4030   -1.5070 c3        1 MOL     -0.024381
     26 C12        -0.3460    8.6580   -2.7140 c3        1 MOL      0.194960
     27 N3          0.3410    9.7830   -3.4370 n4        1 MOL     -0.447881
     28 H8          0.1380    4.3530   -0.2730 hn        1 MOL      0.262616
     29 H9          2.0180    6.3930   -0.8130 h1        1 MOL      0.076277
     30 H10         0.5450    7.4980    1.0390 hc        1 MOL      0.148719
     31 H11        -0.5000    6.1130    0.7690 hc        1 MOL      0.148719
     32 H12        -1.3170    7.6620   -0.4970 hc        1 MOL      0.034037
     33 H13        -0.5670    6.3760   -1.5000 hc        1 MOL      0.034037
     34 H14         1.3990    8.0670   -1.8260 hc        1 MOL      0.040892
     35 H15         0.5230    9.2830   -0.8600 hc        1 MOL      0.040892
     36 H16        -1.3320    8.9150   -2.3460 hx        1 MOL      0.026283
     37 H17        -0.4970    7.7820   -3.3400 hx        1 MOL      0.026283
     38 H18        -0.0370    9.8740   -4.3670 hn        1 MOL      0.339715
     39 H19         0.1550   10.6880   -3.0410 hn        1 MOL      0.339715
     40 H20         1.3340    9.5990   -3.3960 hn        1 MOL      0.339715
     41 N4          2.4560    4.9080    2.0440 n         1 MOL     -0.202681
     42 C13         3.5060    4.3870    3.0040 c3        1 MOL     -0.008367
     43 C14         4.6550    3.7220    2.1740 c         1 MOL      0.466020
     44 O6          5.8490    3.7930    2.5770 o         1 MOL     -0.545225
     45 C15         2.9160    3.4090    3.9750 c3        1 MOL     -0.203660
     46 C16         2.2380    2.2860    3.2540 c         1 MOL      0.577248
     47 O7          1.0430    2.4560    2.8100 o         1 MOL     -0.662337
     48 O8          2.8830    1.2240    3.0620 o         1 MOL     -0.662337
     49 H21         1.7270    4.2640    1.7650 hn        1 MOL      0.132514
     50 H22         3.9260    5.2910    3.4630 h1        1 MOL      0.093770
     51 H23         2.1440    3.8920    4.5740 hc        1 MOL      0.074017
     52 H24         3.6840    2.9880    4.6190 hc        1 MOL      0.074017
     53 N5          4.2980    3.1890    1.0340 n         1 MOL      0.047301
     54 C17         5.2640    2.8670   -0.0340 c3        1 MOL     -0.114604
     55 C18         6.2440    1.7510    0.3540 c         1 MOL      0.498872
     56 O9          7.4520    1.8930    0.3510 o         1 MOL     -0.585349
     57 H25         3.3420    2.9920    0.7800 hn        1 MOL     -0.039746
     58 H26         5.8460    3.7390   -0.3310 h1        1 MOL      0.086979
     59 H27         4.7960    2.4920   -0.9470 h1        1 MOL      0.086979
     60 N6          5.6910    0.6130    0.5940 n         1 MOL     -0.057601
     61 C19         6.4020   -0.6610    0.9780 c3        1 MOL      0.093928
     62 C20         6.5000   -1.6650   -0.0760 c         1 MOL      0.337250
     63 O10         7.2900   -2.5860    0.0440 o         1 MOL     -0.500863
     64 C21         5.7210   -1.2090    2.2970 c3        1 MOL     -0.292179
     65 C22         4.4120   -1.9300    2.0720 c         1 MOL      0.612301
     66 N7          4.1610   -3.1090    2.5950 n         1 MOL     -0.656030
     67 O11         3.5250   -1.4150    1.3610 o         1 MOL     -0.651269
     68 H28         4.6800    0.5710    0.4970 hn        1 MOL     -0.064814
     69 H29         7.4360   -0.4890    1.2720 h1        1 MOL      0.098943
     70 H30         5.4560   -0.3720    2.9590 hc        1 MOL      0.111231
     71 H31         6.4030   -1.9540    2.7180 hc        1 MOL      0.111231
     72 H32         4.7700   -3.6310    3.2240 hn        1 MOL      0.331990
     73 H33         3.2060   -3.4090    2.4700 hn        1 MOL      0.331990
     74 N8          5.6710   -1.5810   -1.1850 n         1 MOL     -0.094439
     75 C23         5.5800   -2.5370   -2.3060 c3        1 MOL     -0.276813
     76 C24         4.2390   -3.3360   -2.3980 c         1 MOL      0.663458
     77 O12         4.1730   -4.2300   -3.1790 o         1 MOL     -0.571606
     78 H34         4.9410   -0.8910   -1.0420 hn        1 MOL      0.060471
     79 H35         6.3550   -3.3030   -2.2140 h1        1 MOL      0.126300
     80 H36         5.6000   -2.0390   -3.2710 h1        1 MOL      0.126300
     81 N9          3.3480   -3.0900   -1.4890 n         1 MOL     -0.435502
     82 C25         2.0650   -3.8240   -1.2530 c3        1 MOL     -0.047672
     83 C26         0.8800   -2.8970   -0.9270 c         1 MOL      0.527932
     84 O13         1.0040   -1.8590   -0.3110 o         1 MOL     -0.493147
     85 C27         2.2480   -4.9770   -0.2660 c3        1 MOL      0.085609
     86 C28         3.4600   -5.8760   -0.5330 ca        1 MOL      0.035344
     87 C29         4.7070   -5.6860    0.0660 ca        1 MOL     -0.296820
     88 C30         3.3470   -6.8720   -1.5370 ca        1 MOL     -0.296820
     89 C31         5.8170   -6.5690   -0.2360 ca        1 MOL     -0.054604
     90 C32         4.4180   -7.7540   -1.7150 ca        1 MOL     -0.054604
     91 C33         5.6350   -7.6740   -1.0670 ca        1 MOL      0.190446
     92 O14         6.5700   -8.6400   -1.2940 oh        1 MOL     -0.454808
     93 H37         3.5500   -2.3690   -0.8050 hn        1 MOL      0.421547
     94 H38         1.7760   -4.3370   -2.1780 h1        1 MOL      0.086812
     95 H39         1.4190   -5.6850   -0.2320 hc        1 MOL     -0.013714
     96 H40         2.2990   -4.5940    0.7570 hc        1 MOL     -0.013714
     97 H41         4.7930   -4.9250    0.8250 ha        1 MOL      0.166888
     98 H42         2.4430   -6.9570   -2.1250 ha        1 MOL      0.166888
     99 H43         6.7340   -6.3760    0.3080 ha        1 MOL      0.093964
    100 H44         4.2620   -8.6530   -2.2920 ha        1 MOL      0.093964
    101 H45         6.2120   -9.2280   -1.9710 ho        1 MOL      0.345521
    102 N10        -0.2350   -3.2990   -1.5110 n         1 MOL     -0.469855
    103 C34        -1.5930   -2.6950   -1.1310 c3        1 MOL     -0.101543
    104 C35        -2.6590   -3.7180   -0.7690 c         1 MOL      0.562850
    105 O15        -2.9300   -4.6490   -1.4600 o         1 MOL     -0.531677
    106 C36        -2.0410   -1.6280   -2.1480 c3        1 MOL      0.087177
    107 C37        -2.4710   -2.1940   -3.4830 c3        1 MOL     -0.119341
    108 C38        -1.0320   -0.5050   -2.3960 c3        1 MOL     -0.487035
    109 C39        -2.8410   -1.3490   -4.7290 c3        1 MOL     -0.119612
    110 H46        -0.2650   -4.0670   -2.1740 hn        1 MOL      0.315717
    111 H47        -1.3810   -2.2010   -0.1850 h1        1 MOL      0.068862
    112 H48        -2.8290   -0.9990   -1.7440 hc        1 MOL      0.044104
    113 H49        -3.2900   -2.8850   -3.2920 hc        1 MOL      0.070316
    114 H50        -1.6510   -2.8140   -3.8690 hc        1 MOL      0.070316
    115 H51        -1.5880    0.4110   -2.6010 hc        1 MOL      0.157015
    116 H52        -0.4140   -0.2760   -1.5240 hc        1 MOL      0.157015
    117 H53        -0.3250   -0.7730   -3.1770 hc        1 MOL      0.157015
    118 H54        -2.7340   -1.9240   -5.6480 hc        1 MOL      0.031956
    119 H55        -3.8940   -1.1080   -4.6380 hc        1 MOL      0.031956
    120 H56        -2.2410   -0.4520   -4.8750 hc        1 MOL      0.031956
    121 N11        -3.2890   -3.5000    0.4020 n         1 MOL     -0.406073
    122 C40        -4.5950   -4.0200    0.7760 c3        1 MOL      0.066162
    123 C41        -5.7060   -3.1650    0.1260 c         1 MOL      0.603486
    124 O16        -5.5000   -1.9460   -0.2000 o         1 MOL     -0.564562
    125 C42        -4.8390   -4.0940    2.2910 c3        1 MOL     -0.252328
    126 O17        -4.7610   -2.8190    2.9270 oh        1 MOL     -0.476351
    127 H57        -2.9320   -2.7310    0.9630 hn        1 MOL      0.254716
    128 H58        -4.6680   -5.0640    0.4720 h1        1 MOL      0.062481
    129 H59        -4.0680   -4.7420    2.7180 h1        1 MOL      0.156278
    130 H60        -5.8450   -4.4020    2.5660 h1        1 MOL      0.156278
    131 H61        -3.8330   -2.7010    3.1610 ho        1 MOL      0.385760
    132 N12        -6.9310   -3.6920    0.1590 n         1 MOL     -0.594624
    133 C43        -8.1520   -2.9210   -0.2760 c3        1 MOL      0.244476
    134 C44        -8.5380   -1.6060    0.5010 c         1 MOL      0.425519
    135 O18        -9.0850   -0.6720   -0.0520 o         1 MOL     -0.459914
    136 C45        -9.3190   -3.8580   -0.3600 c3        1 MOL     -0.337202
    137 H62        -7.0070   -4.6680    0.4150 hn        1 MOL      0.315943
    138 H63        -7.8860   -2.5010   -1.2420 h1        1 MOL      0.092200
    139 H64        -8.9520   -4.7950   -0.7730 hc        1 MOL      0.098625
    140 H65        -9.9040   -4.0260    0.5460 hc        1 MOL      0.098625
    141 H66        -9.8750   -3.3290   -1.1410 hc        1 MOL      0.098625
    142 N13        -7.9800   -1.4680    1.7050 n         1 MOL     -0.403766
    143 C46        -7.9890   -0.2320    2.5130 c3        1 MOL      0.030360
    144 C47        -7.1760    0.8860    1.8120 c         1 MOL      0.373450
    145 O19        -7.6220    2.0350    1.8420 o         1 MOL     -0.533811
    146 C48        -7.5810   -0.6410    3.9230 c3        1 MOL     -0.197273
    147 H67        -7.4520   -2.2160    2.1280 hn        1 MOL      0.283100
    148 H68        -9.0330    0.0760    2.4760 h1        1 MOL      0.113913
    149 H69        -6.6200   -1.1430    3.8990 hc        1 MOL      0.062864
    150 H70        -7.4900    0.1650    4.6550 hc        1 MOL      0.062864
    151 H71        -8.3930   -1.2250    4.3490 hc        1 MOL      0.062864
    152 N14        -6.1260    0.5720    1.0960 n         1 MOL     -0.052518
    153 C49        -5.3680    1.5250    0.3320 c3        1 MOL     -0.240256
    154 C50        -6.0190    1.7410   -1.0350 c         1 MOL      0.495134
    155 O20        -5.7890    2.7330   -1.7470 o         1 MOL     -0.562739
    156 C51        -3.8710    1.0820    0.3150 c3        1 MOL      0.150953
    157 C52        -3.2210    0.8110    1.6380 c3        1 MOL     -0.182357
    158 C53        -1.7960    0.2940    1.3200 c         1 MOL      0.900090
    159 O21        -1.4180   -0.7900    1.8230 o         1 MOL     -0.815415
    160 O22        -0.8330    0.9680    0.8330 o         1 MOL     -0.815415
    161 H72        -5.8410   -0.3960    1.0640 hn        1 MOL      0.242891
    162 H73        -5.3910    2.4720    0.8550 h1        1 MOL      0.148043
    163 H74        -3.3170    1.8270   -0.2740 hc        1 MOL      0.018105
    164 H75        -3.8970    0.1480   -0.2510 hc        1 MOL      0.018105
    165 H76        -3.7720    0.0660    2.2170 hc        1 MOL      0.010469
    166 H77        -3.0360    1.7330    2.1820 hc        1 MOL      0.010469
    167 N15        -7.0200    0.9300   -1.4740 n         1 MOL     -0.085375
    168 C54        -7.7940    1.2270   -2.6930 c3        1 MOL     -0.251759
    169 H78        -8.0390    2.2880   -2.7180 h1        1 MOL      0.102051
    170 H79        -7.2010    0.9710   -3.5710 h1        1 MOL      0.102051
    171 H80        -8.7140    0.6410   -2.6920 h1        1 MOL      0.102051
    172 H81        -7.3110    0.1720   -0.8800 hn        1 MOL      0.062279
    173 Ca1         1.1370   -0.2630    1.7700 Ca        1 MOL      1.782013
    174 O23         0.2710   -0.1050    4.4790 oh        1 MOL     -0.836127
    175 H82         0.3490   -0.6770    5.2490 ho        1 MOL      0.414349
    176 H83         0.1300    0.7680    4.8550 ho        1 MOL      0.414349
    177 O24         0.9890   -2.6580    2.8640 oh        1 MOL     -0.836127
    178 H84         0.7970   -2.8310    3.7780 ho        1 MOL      0.414349
    179 H85         0.7020   -3.4470    2.4030 ho        1 MOL      0.414349
@<TRIPOS>BOND
     1    1    2 1   
     2    1    4 1   
     3    1    5 1   
     4    1    6 1   
     5    2    3 2   
     6    2    7 1   
     7    7    8 1   
     8    7   15 1   
     9    8    9 1   
    10    8   11 1   
    11    8   16 1   
    12    9   10 2   
    13    9   19 1   
    14   11   12 1   
    15   11   17 1   
    16   11   18 1   
    17   12   13 1   
    18   12   14 1   
    19   19   20 1   
    20   19   28 1   
    21   20   21 1   
    22   20   23 1   
    23   20   29 1   
    24   21   22 2   
    25   21   41 1   
    26   23   24 1   
    27   23   30 1   
    28   23   31 1   
    29   24   25 1   
    30   24   32 1   
    31   24   33 1   
    32   25   26 1   
    33   25   34 1   
    34   25   35 1   
    35   26   27 1   
    36   26   36 1   
    37   26   37 1   
    38   27   38 1   
    39   27   39 1   
    40   27   40 1   
    41   41   42 1   
    42   41   49 1   
    43   42   43 1   
    44   42   45 1   
    45   42   50 1   
    46   43   44 2   
    47   43   53 1   
    48   45   46 1   
    49   45   51 1   
    50   45   52 1   
    51   46   47 1   
    52   46   48 1   
    53   53   54 1   
    54   53   57 1   
    55   54   55 1   
    56   54   58 1   
    57   54   59 1   
    58   55   56 2   
    59   55   60 1   
    60   60   61 1   
    61   60   68 1   
    62   61   62 1   
    63   61   64 1   
    64   61   69 1   
    65   62   63 2   
    66   62   74 1   
    67   64   65 1   
    68   64   70 1   
    69   64   71 1   
    70   65   66 1   
    71   65   67 2   
    72   66   72 1   
    73   66   73 1   
    74   74   75 1   
    75   74   78 1   
    76   75   76 1   
    77   75   79 1   
    78   75   80 1   
    79   76   77 2   
    80   76   81 1   
    81   81   82 1   
    82   81   93 1   
    83   82   83 1   
    84   82   85 1   
    85   82   94 1   
    86   83   84 2   
    87   83  102 1   
    88   85   86 1   
    89   85   95 1   
    90   85   96 1   
    91   86   87 ar  
    92   86   88 ar  
    93   87   89 ar  
    94   87   97 1   
    95   88   90 ar  
    96   88   98 1   
    97   89   91 ar  
    98   89   99 1   
    99   90   91 ar  
   100   90  100 1   
   101   91   92 1   
   102   92  101 1   
   103  102  103 1   
   104  102  110 1   
   105  103  104 1   
   106  103  106 1   
   107  103  111 1   
   108  104  105 2   
   109  104  121 1   
   110  106  107 1   
   111  106  108 1   
   112  106  112 1   
   113  107  109 1   
   114  107  113 1   
   115  107  114 1   
   116  108  115 1   
   117  108  116 1   
   118  108  117 1   
   119  109  118 1   
   120  109  119 1   
   121  109  120 1   
   122  121  122 1   
   123  121  127 1   
   124  122  123 1   
   125  122  125 1   
   126  122  128 1   
   127  123  124 2   
   128  123  132 1   
   129  125  126 1   
   130  125  129 1   
   131  125  130 1   
   132  126  131 1   
   133  132  133 1   
   134  132  137 1   
   135  133  134 1   
   136  133  136 1   
   137  133  138 1   
   138  134  135 2   
   139  134  142 1   
   140  136  139 1   
   141  136  140 1   
   142  136  141 1   
   143  142  143 1   
   144  142  147 1   
   145  143  144 1   
   146  143  146 1   
   147  143  148 1   
   148  144  145 2   
   149  144  152 1   
   150  146  149 1   
   151  146  150 1   
   152  146  151 1   
   153  152  153 1   
   154  152  161 1   
   155  153  154 1   
   156  153  156 1   
   157  153  162 1   
   158  154  155 2   
   159  154  167 1   
   160  156  157 1   
   161  156  163 1   
   162  156  164 1   
   163  157  158 1   
   164  157  165 1   
   165  157  166 1   
   166  158  159 1   
   167  158  160 1   
   168  167  168 1   
   169  167  172 1   
   170  168  169 1   
   171  168  170 1   
   172  168  171 1   
   173  174  175 1   
   174  174  176 1   
   175  177  178 1   
   176  177  179 1   
@<TRIPOS>SUBSTRUCTURE
     1 MOL         1 TEMP              0 ****  ****    0 ROOT
