@<TRIPOS>MOLECULE
MOL
  189   185     1     0     0
SMALL
resp


@<TRIPOS>ATOM
      1 C1         -0.6170    3.4070    5.8300 c3        1 MOL     -0.377704
      2 C2         -0.6580    2.8210    4.4250 c         1 MOL      0.771848
      3 O1          0.2520    2.9340    3.7020 o         1 MOL     -0.575526
      4 H1         -0.2760    4.4410    5.7820 hc        1 MOL      0.090325
      5 H2         -1.6160    3.3730    6.2670 hc        1 MOL      0.090325
      6 H3          0.0690    2.8270    6.4470 hc        1 MOL      0.090325
      7 N1         -1.8280    2.3860    3.9690 n         1 MOL     -0.711466
      8 C3         -2.0550    2.0370    2.5690 c3        1 MOL      0.006643
      9 C4         -2.2010    3.3160    1.7600 c         1 MOL      0.486503
     10 O2         -2.9520    4.2900    2.0730 o         1 MOL     -0.589434
     11 C5         -3.2980    1.1230    2.5820 c3        1 MOL     -0.082659
     12 C6         -3.6360    0.5190    1.2810 c         1 MOL      0.867853
     13 O3         -4.6730   -0.1210    1.1760 o         1 MOL     -0.755404
     14 O4         -2.9300    0.8120    0.2850 o         1 MOL     -0.755404
     15 H4         -2.5820    2.2120    4.6110 hn        1 MOL      0.379849
     16 H5         -1.1860    1.5210    2.1620 h1        1 MOL      0.058182
     17 H6         -4.2070    1.6120    2.9380 hc        1 MOL      0.026104
     18 H7         -3.1010    0.3330    3.3040 hc        1 MOL      0.026104
     19 N2         -1.3450    3.4670    0.7260 n         1 MOL     -0.131392
     20 C7         -1.1320    4.7220   -0.0470 c3        1 MOL     -0.125480
     21 C8         -1.9630    4.8610   -1.3380 c         1 MOL      0.507904
     22 O5         -2.4580    5.9730   -1.6100 o         1 MOL     -0.547909
     23 C9          0.3710    4.9860   -0.2540 c3        1 MOL      0.144757
     24 C10         1.3010    5.0000    1.0060 c3        1 MOL     -0.061712
     25 C11         1.0570    6.2720    1.8210 c3        1 MOL     -0.025992
     26 C12        -0.0840    5.9320    2.8260 c3        1 MOL      0.069376
     27 N3         -0.6580    7.1350    3.5070 n4        1 MOL     -0.575456
     28 H8         -0.7060    2.6980    0.6280 hn        1 MOL      0.252800
     29 H9         -1.5150    5.5220    0.5820 h1        1 MOL      0.053569
     30 H10         0.5260    5.8500   -0.8880 hc        1 MOL     -0.021922
     31 H11         0.6870    4.1620   -0.8990 hc        1 MOL     -0.021922
     32 H12         2.2890    5.1700    0.5800 hc        1 MOL      0.027695
     33 H13         1.2710    4.0950    1.6180 hc        1 MOL      0.027695
     34 H14         0.9180    7.0920    1.1140 hc        1 MOL      0.028191
     35 H15         1.9510    6.5230    2.3930 hc        1 MOL      0.028191
     36 H16         0.1670    5.1220    3.5070 hx        1 MOL      0.104454
     37 H17        -0.9650    5.6370    2.2700 hx        1 MOL      0.104454
     38 H18         0.0100    7.3860    4.2320 hn        1 MOL      0.368863
     39 H19        -0.9240    7.8700    2.8680 hn        1 MOL      0.368863
     40 H20        -1.4430    6.8240    4.0640 hn        1 MOL      0.368863
     41 N4         -2.2120    3.7040   -2.0050 n         1 MOL     -0.330580
     42 C13        -3.2160    3.7110   -3.0810 c3        1 MOL      0.008899
     43 C14        -4.6030    3.2070   -2.6760 c         1 MOL      0.422549
     44 O6         -5.5860    3.3530   -3.4010 o         1 MOL     -0.540872
     45 C15        -2.7250    3.0460   -4.3430 c3        1 MOL     -0.230925
     46 C16        -2.2860    1.5530   -4.1550 c         1 MOL      0.798462
     47 O7         -1.6330    0.9360   -5.0320 o         1 MOL     -0.731616
     48 O8         -2.5330    1.0110   -3.0790 o         1 MOL     -0.731616
     49 H21        -1.7760    2.8200   -1.7650 hn        1 MOL      0.252308
     50 H22        -3.3740    4.7300   -3.4480 h1        1 MOL      0.100745
     51 H23        -1.8660    3.4960   -4.8340 hc        1 MOL      0.060902
     52 H24        -3.4840    2.9930   -5.1280 hc        1 MOL      0.060902
     53 N5         -4.7590    2.7050   -1.4860 n         1 MOL     -0.092828
     54 C17        -6.0240    2.4730   -0.8080 c3        1 MOL     -0.331037
     55 C18        -6.7900    1.1800   -1.2000 c         1 MOL      0.616828
     56 O9         -7.9960    1.1140   -1.0030 o         1 MOL     -0.596799
     57 H25        -3.9550    2.3200   -0.9920 hn        1 MOL      0.120082
     58 H26        -6.6380    3.3710   -0.8870 h1        1 MOL      0.143478
     59 H27        -5.8210    2.3040    0.2410 h1        1 MOL      0.143478
     60 N6         -6.1170    0.1330   -1.7170 n         1 MOL     -0.280163
     61 C19        -6.7460   -1.1760   -2.1760 c3        1 MOL     -0.116613
     62 C20        -7.0840   -2.2340   -1.1500 c         1 MOL      0.430976
     63 O10        -7.6340   -3.3090   -1.4120 o         1 MOL     -0.526713
     64 C21        -5.8120   -1.8370   -3.1970 c3        1 MOL     -0.139391
     65 C22        -4.3650   -1.9880   -2.6140 c         1 MOL      0.685917
     66 O11        -4.1480   -1.9440   -1.3940 o         1 MOL     -0.679409
     67 O12        -3.4200   -2.1420   -3.4410 o         1 MOL     -0.679409
     68 H28        -5.1210    0.2380   -1.7580 hn        1 MOL      0.181306
     69 H29        -7.6650   -0.9670   -2.7370 h1        1 MOL      0.137554
     70 H30        -5.7600   -1.3800   -4.1840 hc        1 MOL      0.060974
     71 H31        -6.2130   -2.8360   -3.3720 hc        1 MOL      0.060974
     72 N7         -6.6800   -1.9180    0.0740 n         1 MOL     -0.214456
     73 C23        -6.9460   -2.8810    1.2090 c3        1 MOL     -0.204391
     74 C24        -5.7700   -3.8160    1.6340 c         1 MOL      0.613886
     75 O13        -5.9580   -4.8640    2.2050 o         1 MOL     -0.565915
     76 H32        -6.1730   -1.0620    0.2510 hn        1 MOL      0.276921
     77 H33        -7.7250   -3.5490    0.8480 h1        1 MOL      0.103590
     78 H34        -7.2460   -2.3630    2.1230 h1        1 MOL      0.103590
     79 N8         -4.5080   -3.4100    1.2950 n         1 MOL     -0.384591
     80 C25        -3.2460   -4.0190    1.5640 c3        1 MOL     -0.121911
     81 C26        -2.1340   -3.0890    1.5770 c         1 MOL      0.695828
     82 O14        -2.1280   -2.0850    0.8720 o         1 MOL     -0.698809
     83 C27        -2.8960   -5.1220    0.5000 c3        1 MOL      0.554744
     84 C28        -3.3570   -6.5150    0.8180 c3        1 MOL     -0.366733
     85 O15        -3.2700   -4.7310   -0.8220 oh        1 MOL     -0.663769
     86 H35        -4.4300   -2.4890    0.8860 hn        1 MOL      0.271927
     87 H36        -3.1930   -4.5410    2.5270 h1        1 MOL      0.066575
     88 H37        -1.8140   -5.2230    0.5150 h1        1 MOL     -0.046244
     89 H38        -3.7280   -3.8940   -0.8110 ho        1 MOL      0.428019
     90 H39        -4.4020   -6.7750    0.7010 hc        1 MOL      0.085020
     91 H40        -2.7910   -7.2390    0.2230 hc        1 MOL      0.085020
     92 H41        -3.0290   -6.7430    1.8290 hc        1 MOL      0.085020
     93 N9         -1.0460   -3.3550    2.3410 n         1 MOL     -0.648952
     94 C29         0.2200   -2.6130    2.2950 c3        1 MOL      0.117854
     95 C30         1.3010   -3.4390    1.6600 c         1 MOL      0.587047
     96 O16         1.2190   -4.6730    1.6420 o         1 MOL     -0.556611
     97 C31         0.5330   -2.2550    3.7690 c3        1 MOL     -0.115315
     98 C32        -0.5320   -1.2290    4.3150 c3        1 MOL      0.514728
     99 C33         1.8970   -1.6890    4.0380 c3        1 MOL     -0.449744
    100 C34        -0.5700   -0.9320    5.8440 c3        1 MOL     -0.282232
    101 H42        -1.1740   -4.2220    2.8540 hn        1 MOL      0.304544
    102 H43         0.1600   -1.7520    1.6340 h1        1 MOL      0.055682
    103 H44         0.5080   -3.1290    4.4210 hc        1 MOL      0.075366
    104 H45        -1.5010   -1.7300    4.3180 hc        1 MOL     -0.095187
    105 H46        -0.5470   -0.3140    3.7230 hc        1 MOL     -0.095187
    106 H47         2.7070   -2.0760    3.4150 hc        1 MOL      0.092229
    107 H48         1.9470   -0.6160    3.8580 hc        1 MOL      0.092229
    108 H49         1.9830   -1.7240    5.1220 hc        1 MOL      0.092229
    109 H50        -0.5140   -1.8240    6.4650 hc        1 MOL      0.056683
    110 H51         0.3190   -0.3180    6.0350 hc        1 MOL      0.056683
    111 H52        -1.4160   -0.2990    6.1020 hc        1 MOL      0.056683
    112 N10         2.3160   -2.8150    1.0340 n         1 MOL     -0.253639
    113 C35         3.3630   -3.3860    0.2410 c3        1 MOL     -0.050658
    114 C36         4.7450   -2.8400    0.5540 c         1 MOL      0.277581
    115 O17         4.8350   -1.8010    1.2400 o         1 MOL     -0.159460
    116 C37         3.0600   -3.2500   -1.2670 c3        1 MOL      0.400831
    117 C38         1.8660   -3.9840   -1.8630 c3        1 MOL     -0.341210
    118 O18         2.9250   -1.9340   -1.6870 oh        1 MOL     -0.659288
    119 H53         2.3160   -1.8110    0.9080 hn        1 MOL      0.240892
    120 H54         3.3850   -4.4600    0.4550 h1        1 MOL      0.072333
    121 H55         3.8270   -3.7200   -1.8680 h1        1 MOL      0.011017
    122 H56         2.1380   -1.6190   -1.2570 ho        1 MOL      0.404157
    123 H57         0.8920   -3.7610   -1.4280 hc        1 MOL      0.076445
    124 H58         1.6980   -3.7570   -2.9200 hc        1 MOL      0.076445
    125 H59         2.2070   -5.0030   -1.6950 hc        1 MOL      0.076445
    126 N11         5.8110   -3.4030   -0.0580 n         1 MOL     -0.339151
    127 C39         7.2090   -2.8750    0.0410 c3        1 MOL     -0.208345
    128 C40         7.2090   -1.3820   -0.0910 c         1 MOL      0.296552
    129 O19         7.8870   -0.6750    0.6550 o         1 MOL     -0.488331
    130 C41         8.1510   -3.4520   -1.0340 c3        1 MOL      0.358355
    131 C42         8.3560   -4.9160   -0.6570 c3        1 MOL     -0.354414
    132 O20         7.5220   -3.4780   -2.2220 oh        1 MOL     -0.538148
    133 H60         5.6580   -4.1160   -0.7540 hn        1 MOL      0.290915
    134 H61         7.5150   -2.9950    1.0800 h1        1 MOL      0.178731
    135 H62         9.1320   -2.9810   -1.1040 h1        1 MOL      0.049114
    136 H63         8.1120   -2.8790   -2.7010 ho        1 MOL      0.353658
    137 H64         7.4530   -5.5060   -0.5350 hc        1 MOL      0.100155
    138 H65         8.8810   -5.4210   -1.4630 hc        1 MOL      0.100155
    139 H66         8.9680   -4.9310    0.2470 hc        1 MOL      0.100155
    140 N12         6.4100   -0.7540   -0.9800 n         1 MOL     -0.119857
    141 C43         6.3660    0.6670   -1.3690 c3        1 MOL     -0.167635
    142 C44         5.6690    1.6250   -0.3640 c         1 MOL      0.534221
    143 O21         5.9920    2.8180   -0.2880 o         1 MOL     -0.534461
    144 C45         5.6090    0.6120   -2.7230 c3        1 MOL     -0.096927
    145 C46         5.2810    1.9460   -3.4810 c3        1 MOL     -0.031757
    146 C47         6.5290    2.8110   -3.7950 c3        1 MOL     -0.099670
    147 C48         7.5910    2.0150   -4.5800 c3        1 MOL      0.074879
    148 N13         8.6500    2.9120   -5.1830 n4        1 MOL     -0.466062
    149 H67         5.9030   -1.4090   -1.5620 hn        1 MOL      0.174200
    150 H68         7.3780    0.9920   -1.6560 h1        1 MOL      0.096619
    151 H69         4.6570    0.1710   -2.4210 hc        1 MOL      0.050060
    152 H70         6.1030   -0.0470   -3.4340 hc        1 MOL      0.050060
    153 H71         4.6470    2.5310   -2.8210 hc        1 MOL      0.056361
    154 H72         4.8010    1.7770   -4.4490 hc        1 MOL      0.056361
    155 H73         6.8840    3.1320   -2.8210 hc        1 MOL      0.051315
    156 H74         6.1220    3.7040   -4.2710 hc        1 MOL      0.051315
    157 H75         7.0820    1.4090   -5.3230 hx        1 MOL      0.079343
    158 H76         7.9780    1.2450   -3.9100 hx        1 MOL      0.079343
    159 H77         8.1700    3.4790   -5.8650 hn        1 MOL      0.353150
    160 H78         8.9680    3.5320   -4.4550 hn        1 MOL      0.353150
    161 H79         9.3700    2.3230   -5.5690 hn        1 MOL      0.353150
    162 N14         4.9270    1.0240    0.5280 n         1 MOL     -0.223337
    163 C49         4.0910    1.7870    1.4320 c3        1 MOL     -0.004209
    164 C50         4.4640    1.4600    2.9300 c         1 MOL      0.427462
    165 O22         4.2780    2.2540    3.8360 o         1 MOL     -0.533434
    166 C51         2.6760    1.2210    1.0720 c3        1 MOL      0.009652
    167 C52         2.2340    1.1840   -0.4130 c3        1 MOL     -0.024004
    168 C53         0.8630    0.5180   -0.6530 c         1 MOL      0.610480
    169 O23         0.7590   -0.6930   -0.4900 o         1 MOL     -0.712706
    170 O24        -0.1200    1.2390   -1.0000 o         1 MOL     -0.712706
    171 H80         4.8820    0.0080    0.5500 hn        1 MOL      0.097109
    172 H81         4.1270    2.8390    1.1460 h1        1 MOL      0.061544
    173 H82         1.8760    1.6490    1.6750 hc        1 MOL      0.023713
    174 H83         2.7670    0.1600    1.3210 hc        1 MOL      0.023713
    175 H84         2.9280    0.6600   -1.0720 hc        1 MOL      0.013942
    176 H85         2.1520    2.1720   -0.8590 hc        1 MOL      0.013942
    177 N15         4.9420    0.2320    3.2230 n         1 MOL     -0.070878
    178 C54         5.4260   -0.2700    4.5020 c3        1 MOL     -0.284533
    179 H86         5.7410    0.5670    5.1240 h1        1 MOL      0.114303
    180 H87         4.6270   -0.8150    5.0040 h1        1 MOL      0.114303
    181 H88         6.2710   -0.9370    4.3340 h1        1 MOL      0.114303
    182 H89         4.9630   -0.4070    2.4390 hn        1 MOL      0.041377
    183 Ca1        -1.8060   -0.8420   -1.4500 Ca        1 MOL      1.768127
    184 O25        -0.2250   -0.8300   -3.6570 oh        1 MOL     -0.805226
    185 H90        -0.6210   -0.2650   -4.3230 ho        1 MOL      0.385768
    186 H91         0.4700   -1.3000   -4.1210 ho        1 MOL      0.385768
    187 O26        -1.1480   -3.4650   -2.4600 oh        1 MOL     -0.805226
    188 H92        -1.6280   -4.2330   -2.1560 ho        1 MOL      0.385768
    189 H93        -0.6410   -3.7880   -3.2090 ho        1 MOL      0.385768
@<TRIPOS>BOND
     1    1    2 1   
     2    1    4 1   
     3    1    5 1   
     4    1    6 1   
     5    2    3 2   
     6    2    7 1   
     7    7    8 1   
     8    7   15 1   
     9    8    9 1   
    10    8   11 1   
    11    8   16 1   
    12    9   10 2   
    13    9   19 1   
    14   11   12 1   
    15   11   17 1   
    16   11   18 1   
    17   12   13 1   
    18   12   14 1   
    19   19   20 1   
    20   19   28 1   
    21   20   21 1   
    22   20   23 1   
    23   20   29 1   
    24   21   22 2   
    25   21   41 1   
    26   23   24 1   
    27   23   30 1   
    28   23   31 1   
    29   24   25 1   
    30   24   32 1   
    31   24   33 1   
    32   25   26 1   
    33   25   34 1   
    34   25   35 1   
    35   26   27 1   
    36   26   36 1   
    37   26   37 1   
    38   27   38 1   
    39   27   39 1   
    40   27   40 1   
    41   41   42 1   
    42   41   49 1   
    43   42   43 1   
    44   42   45 1   
    45   42   50 1   
    46   43   44 2   
    47   43   53 1   
    48   45   46 1   
    49   45   51 1   
    50   45   52 1   
    51   46   47 1   
    52   46   48 1   
    53   53   54 1   
    54   53   57 1   
    55   54   55 1   
    56   54   58 1   
    57   54   59 1   
    58   55   56 2   
    59   55   60 1   
    60   60   61 1   
    61   60   68 1   
    62   61   62 1   
    63   61   64 1   
    64   61   69 1   
    65   62   63 2   
    66   62   72 1   
    67   64   65 1   
    68   64   70 1   
    69   64   71 1   
    70   65   66 1   
    71   65   67 1   
    72   72   73 1   
    73   72   76 1   
    74   73   74 1   
    75   73   77 1   
    76   73   78 1   
    77   74   75 2   
    78   74   79 1   
    79   79   80 1   
    80   79   86 1   
    81   80   81 1   
    82   80   83 1   
    83   80   87 1   
    84   81   82 2   
    85   81   93 1   
    86   83   84 1   
    87   83   85 1   
    88   83   88 1   
    89   84   90 1   
    90   84   91 1   
    91   84   92 1   
    92   85   89 1   
    93   93   94 1   
    94   93  101 1   
    95   94   95 1   
    96   94   97 1   
    97   94  102 1   
    98   95   96 2   
    99   95  112 1   
   100   97   98 1   
   101   97   99 1   
   102   97  103 1   
   103   98  100 1   
   104   98  104 1   
   105   98  105 1   
   106   99  106 1   
   107   99  107 1   
   108   99  108 1   
   109  100  109 1   
   110  100  110 1   
   111  100  111 1   
   112  112  113 1   
   113  112  119 1   
   114  113  114 1   
   115  113  116 1   
   116  113  120 1   
   117  114  115 2   
   118  114  126 1   
   119  116  117 1   
   120  116  118 1   
   121  116  121 1   
   122  117  123 1   
   123  117  124 1   
   124  117  125 1   
   125  118  122 1   
   126  126  127 1   
   127  126  133 1   
   128  127  128 1   
   129  127  130 1   
   130  127  134 1   
   131  128  129 2   
   132  128  140 1   
   133  130  131 1   
   134  130  132 1   
   135  130  135 1   
   136  131  137 1   
   137  131  138 1   
   138  131  139 1   
   139  132  136 1   
   140  140  141 1   
   141  140  149 1   
   142  141  142 1   
   143  141  144 1   
   144  141  150 1   
   145  142  143 2   
   146  142  162 1   
   147  144  145 1   
   148  144  151 1   
   149  144  152 1   
   150  145  146 1   
   151  145  153 1   
   152  145  154 1   
   153  146  147 1   
   154  146  155 1   
   155  146  156 1   
   156  147  148 1   
   157  147  157 1   
   158  147  158 1   
   159  148  159 1   
   160  148  160 1   
   161  148  161 1   
   162  162  163 1   
   163  162  171 1   
   164  163  164 1   
   165  163  166 1   
   166  163  172 1   
   167  164  165 2   
   168  164  177 1   
   169  166  167 1   
   170  166  173 1   
   171  166  174 1   
   172  167  168 1   
   173  167  175 1   
   174  167  176 1   
   175  168  169 1   
   176  168  170 1   
   177  177  178 1   
   178  177  182 1   
   179  178  179 1   
   180  178  180 1   
   181  178  181 1   
   182  184  185 1   
   183  184  186 1   
   184  187  188 1   
   185  187  189 1   
@<TRIPOS>SUBSTRUCTURE
     1 MOL         1 TEMP              0 ****  ****    0 ROOT
