@<TRIPOS>MOLECULE
MOL
  175   173     1     0     0
SMALL
resp


@<TRIPOS>ATOM
      1 C1          0.7470    3.9340    5.5140 c3        1 MOL     -0.370534
      2 C2          0.1060    3.8530    4.1250 c         1 MOL      0.687173
      3 O1          0.8180    4.1650    3.1500 o         1 MOL     -0.556752
      4 H1          1.5850    3.2390    5.5680 hc        1 MOL      0.090765
      5 H2          1.1040    4.9480    5.6910 hc        1 MOL      0.090765
      6 H3          0.0080    3.6720    6.2720 hc        1 MOL      0.090765
      7 N1         -1.1990    3.4770    4.0100 n         1 MOL     -0.640726
      8 C3         -1.9280    3.3280    2.7180 c3        1 MOL      0.212912
      9 C4         -2.1010    4.6700    1.9320 c         1 MOL      0.486606
     10 O2         -2.5820    5.7270    2.4940 o         1 MOL     -0.591009
     11 C5         -3.3060    2.6850    2.9340 c3        1 MOL     -0.281469
     12 C6         -4.0420    2.5060    1.5860 c         1 MOL      0.718537
     13 O3         -3.5360    1.9390    0.6630 o         1 MOL     -0.672919
     14 O4         -5.2070    2.9880    1.6010 o         1 MOL     -0.672919
     15 H4         -1.6660    3.2130    4.8560 hn        1 MOL      0.327250
     16 H5         -1.3260    2.6220    2.1490 h1        1 MOL      0.010922
     17 H6         -3.8950    3.1730    3.7120 hc        1 MOL      0.047955
     18 H7         -3.1000    1.7100    3.3640 hc        1 MOL      0.047955
     19 N2         -1.8260    4.4770    0.6760 n         1 MOL     -0.383962
     20 C7         -1.8010    5.4140   -0.4810 c3        1 MOL      0.212116
     21 C8         -2.7140    4.9690   -1.6910 c         1 MOL      0.509701
     22 O5         -2.7050    5.7220   -2.6700 o         1 MOL     -0.571289
     23 C9         -0.3110    5.5160   -0.8250 c3        1 MOL     -0.297554
     24 H8         -1.6080    3.5370    0.3930 hn        1 MOL      0.454538
     25 H9         -2.1780    6.3580   -0.1210 h1        1 MOL      0.022408
     26 H10        -0.1800    6.2970   -1.5820 hc        1 MOL      0.067558
     27 H11         0.0800    5.8360    0.1440 hc        1 MOL      0.067558
     28 H12         0.1080    4.5360   -1.0910 hc        1 MOL      0.067558
     29 N3         -3.5950    4.0220   -1.5080 n         1 MOL     -0.384502
     30 C10        -4.4040    3.6150   -2.6950 c3        1 MOL      0.040402
     31 C11        -5.7640    2.8090   -2.4750 c         1 MOL      0.379450
     32 O6         -6.4780    2.4830   -3.4440 o         1 MOL     -0.523175
     33 C12        -3.5920    2.6990   -3.5700 c3        1 MOL     -0.138864
     34 C13        -3.1120    1.3510   -2.8960 c         1 MOL      0.802261
     35 O7         -3.9110    0.7930   -2.1170 o         1 MOL     -0.760906
     36 O8         -1.9540    0.9030   -2.9900 o         1 MOL     -0.760906
     37 H13        -3.6260    3.3970   -0.7110 hn        1 MOL      0.119794
     38 H14        -4.5300    4.5220   -3.2870 h1        1 MOL      0.096515
     39 H15        -2.6540    3.1900   -3.8000 hc        1 MOL      0.028835
     40 H16        -4.2000    2.4520   -4.4420 hc        1 MOL      0.028835
     41 N4         -6.1160    2.5000   -1.2190 n         1 MOL     -0.220817
     42 C14        -7.3700    1.8810   -0.8000 c3        1 MOL     -0.163910
     43 C15        -7.4950    0.3870   -1.0590 c         1 MOL      0.514669
     44 O9         -8.6260   -0.1040   -1.0320 o         1 MOL     -0.617823
     45 H17        -5.5730    2.8940   -0.4550 hn        1 MOL      0.236626
     46 H18        -8.2100    2.3850   -1.2800 h1        1 MOL      0.099306
     47 H19        -7.5240    2.0780    0.2620 h1        1 MOL      0.099306
     48 N5         -6.4110   -0.3330   -1.4440 n         1 MOL     -0.170988
     49 C16        -6.4430   -1.6840   -2.0180 c3        1 MOL      0.083589
     50 C17        -6.4010   -2.8140   -1.0320 c         1 MOL      0.280368
     51 O10        -6.3430   -4.0330   -1.4090 o         1 MOL     -0.478776
     52 C18        -5.3460   -1.8720   -3.1220 c3        1 MOL     -0.457073
     53 C19        -3.9490   -2.2110   -2.5890 c         1 MOL      0.648390
     54 N6         -3.1140   -2.5030   -3.6060 n         1 MOL     -0.644807
     55 O11        -3.6360   -2.1510   -1.4330 o         1 MOL     -0.462788
     56 H20        -5.5580    0.1940   -1.5360 hn        1 MOL      0.169176
     57 H21        -7.3990   -1.7570   -2.5290 h1        1 MOL      0.107480
     58 H22        -5.0920   -0.9790   -3.6840 hc        1 MOL      0.135937
     59 H23        -5.6260   -2.7680   -3.6690 hc        1 MOL      0.135937
     60 H24        -3.5040   -2.4760   -4.5310 hn        1 MOL      0.317578
     61 H25        -2.1430   -2.6530   -3.3680 hn        1 MOL      0.317578
     62 N7         -6.3970   -2.5070    0.2290 n         1 MOL     -0.133339
     63 C20        -6.4290   -3.4090    1.3580 c3        1 MOL     -0.210976
     64 C21        -5.1730   -4.2370    1.7080 c         1 MOL      0.559864
     65 O12        -5.3080   -5.2930    2.2930 o         1 MOL     -0.587296
     66 H26        -6.3850   -1.5540    0.5530 hn        1 MOL      0.209082
     67 H27        -7.1770   -4.1400    1.0600 h1        1 MOL      0.098449
     68 H28        -6.7340   -2.8590    2.2530 h1        1 MOL      0.098449
     69 N8         -3.9580   -3.8030    1.3210 n         1 MOL     -0.191605
     70 C22        -2.6110   -4.4140    1.6580 c3        1 MOL     -0.118776
     71 C23        -1.4730   -3.3950    1.7830 c         1 MOL      0.329388
     72 O13        -1.6020   -2.3750    1.1370 o         1 MOL     -0.282806
     73 C24        -2.1750   -5.3710    0.4770 c3        1 MOL      0.645064
     74 C25        -2.7430   -6.7650    0.8010 c3        1 MOL     -0.512636
     75 O14        -2.5170   -4.8340   -0.8210 oh        1 MOL     -0.583484
     76 H29        -3.8570   -2.9620    0.7750 hn        1 MOL      0.059322
     77 H30        -2.7900   -4.9720    2.5700 h1        1 MOL      0.073839
     78 H31        -1.0780   -5.4180    0.4930 h1        1 MOL     -0.073588
     79 H32        -2.1430   -3.9510   -0.8870 ho        1 MOL      0.277006
     80 H33        -2.2710   -7.1220    1.7170 hc        1 MOL      0.117171
     81 H34        -3.7880   -6.7700    1.1180 hc        1 MOL      0.117171
     82 H35        -2.5330   -7.3930   -0.0680 hc        1 MOL      0.117171
     83 N9         -0.4180   -3.6600    2.4930 n         1 MOL     -0.498240
     84 C26         0.7950   -2.7860    2.2960 c3        1 MOL      0.088766
     85 C27         1.3120   -3.1420    0.9020 c         1 MOL      0.313389
     86 O15         1.4810   -4.3340    0.5910 o         1 MOL     -0.534984
     87 C28         1.7770   -3.1690    3.3800 c3        1 MOL      0.170789
     88 C29         1.5140   -2.4770    4.8050 c3        1 MOL      0.048575
     89 C30         3.2300   -2.7150    2.9930 c3        1 MOL     -0.208958
     90 C31         2.4950   -2.7480    6.0100 c3        1 MOL     -0.114783
     91 H36        -0.2550   -4.5740    2.8850 hn        1 MOL      0.310393
     92 H37         0.4360   -1.7710    2.4380 h1        1 MOL      0.022076
     93 H38         1.7900   -4.2530    3.4540 hc        1 MOL     -0.010147
     94 H39         0.5320   -2.9060    4.9980 hc        1 MOL     -0.033359
     95 H40         1.3630   -1.4110    4.6190 hc        1 MOL     -0.033359
     96 H41         3.5250   -3.1590    2.0350 hc        1 MOL      0.033707
     97 H42         3.3050   -1.6480    2.7580 hc        1 MOL      0.033707
     98 H43         3.9540   -3.0790    3.7210 hc        1 MOL      0.033707
     99 H44         1.9420   -2.6740    6.9550 hc        1 MOL      0.028636
    100 H45         2.7890   -3.7890    5.8570 hc        1 MOL      0.028636
    101 H46         3.4280   -2.1800    5.9180 hc        1 MOL      0.028636
    102 N10         1.5490   -2.1560    0.0530 n         1 MOL     -0.130520
    103 C32         2.3910   -2.2890   -1.1280 c3        1 MOL      0.049502
    104 C33         3.7380   -1.5610   -0.9860 c         1 MOL      0.652327
    105 O16         3.8700   -0.7890   -0.0200 o         1 MOL     -0.428212
    106 C34         1.7040   -1.8050   -2.4700 c3        1 MOL     -0.452766
    107 C35         0.1580   -2.1280   -2.5180 c         1 MOL      0.852635
    108 O17        -0.6080   -1.4310   -1.8300 o         1 MOL     -0.692820
    109 O18        -0.2030   -2.9580   -3.3720 o         1 MOL     -0.692820
    110 H47         1.2480   -1.2500    0.3760 hn        1 MOL      0.159542
    111 H48         2.6060   -3.3510   -1.2950 h1        1 MOL      0.085353
    112 H49         2.2420   -2.3030   -3.2710 hc        1 MOL      0.113231
    113 H50         1.7470   -0.7190   -2.5590 hc        1 MOL      0.113231
    114 N11         4.7690   -1.7740   -1.9070 n         1 MOL     -0.949088
    115 C36         6.2090   -1.5050   -1.6240 c3        1 MOL      0.486605
    116 C37         6.5670   -0.0040   -1.3130 c         1 MOL      0.187799
    117 O19         7.2370    0.1050   -0.2440 o         1 MOL     -0.442628
    118 C38         7.1190   -2.1780   -2.7010 c3        1 MOL     -0.158877
    119 C39         8.6510   -1.8500   -2.5120 ca        1 MOL      0.056957
    120 C40         9.2620   -2.2530   -1.2860 ca        1 MOL     -0.172813
    121 C41         9.3520   -1.0820   -3.4460 ca        1 MOL     -0.172813
    122 C42        10.5720   -1.9290   -0.9750 ca        1 MOL     -0.117607
    123 C43        10.7250   -0.8370   -3.1640 ca        1 MOL     -0.117607
    124 C44        11.3460   -1.3250   -1.9300 ca        1 MOL     -0.070925
    125 H51         4.6160   -2.3960   -2.6900 hn        1 MOL      0.393541
    126 H52         6.3930   -2.0440   -0.6990 h1        1 MOL      0.038379
    127 H53         6.7930   -1.9310   -3.7140 hc        1 MOL      0.048186
    128 H54         6.9900   -3.2490   -2.6030 hc        1 MOL      0.048186
    129 H55         8.6430   -2.7240   -0.5370 ha        1 MOL      0.123017
    130 H56         8.8030   -0.6640   -4.2800 ha        1 MOL      0.123017
    131 H57        10.9360   -2.1640    0.0090 ha        1 MOL      0.114261
    132 H58        11.2810   -0.3090   -3.9210 ha        1 MOL      0.114261
    133 H59        12.4200   -1.2410   -1.8510 ha        1 MOL      0.083018
    134 N12         5.9800    1.0310   -1.9550 n         1 MOL     -0.010318
    135 C45         6.1470    2.3580   -1.4340 c3        1 MOL      0.146023
    136 C46         5.6880    2.6900   -0.0290 c         1 MOL      0.149847
    137 O20         6.1950    3.5840    0.6830 o         1 MOL     -0.498758
    138 C47         5.4950    3.2980   -2.4130 c3        1 MOL      0.188272
    139 C48         5.0590    2.4570   -3.6200 c3        1 MOL     -0.309394
    140 C49         5.4140    1.0220   -3.2590 c3        1 MOL      0.004227
    141 H60         7.2230    2.5440   -1.4160 h1        1 MOL      0.003162
    142 H61         4.6800    3.8700   -1.9820 hc        1 MOL     -0.020084
    143 H62         6.2330    4.0650   -2.6460 hc        1 MOL     -0.020084
    144 H63         3.9870    2.5000   -3.7960 hc        1 MOL      0.095631
    145 H64         5.7300    2.8080   -4.4020 hc        1 MOL      0.095631
    146 H65         4.4360    0.5620   -3.1930 h1        1 MOL      0.051862
    147 H66         6.0540    0.5880   -4.0210 h1        1 MOL      0.051862
    148 N13         4.6110    2.0770    0.4160 n         1 MOL     -0.017088
    149 C50         4.0380    2.2360    1.7410 c3        1 MOL     -0.029574
    150 C51         4.8970    1.4630    2.7690 c         1 MOL      0.471646
    151 O21         5.0840    2.0240    3.8840 o         1 MOL     -0.572489
    152 C52         2.5710    1.6760    1.6870 c3        1 MOL     -0.152671
    153 C53         1.7870    2.2830    0.5780 c3        1 MOL      0.020780
    154 C54         0.4240    1.5650    0.4630 c         1 MOL      0.616498
    155 O22         0.2540    0.3360    0.7100 o         1 MOL     -0.701997
    156 O23        -0.4820    2.1940   -0.1200 o         1 MOL     -0.701997
    157 H67         4.2440    1.3690   -0.2170 hn        1 MOL      0.176051
    158 H68         4.0840    3.2550    2.1170 h1        1 MOL      0.102709
    159 H69         2.1550    1.8780    2.6710 hc        1 MOL      0.043689
    160 H70         2.7020    0.6010    1.5960 hc        1 MOL      0.043689
    161 H71         2.3680    2.2410   -0.3400 hc        1 MOL      0.022039
    162 H72         1.5730    3.3440    0.6940 hc        1 MOL      0.022039
    163 N14         5.5190    0.3320    2.4910 n         1 MOL     -0.058461
    164 C55         6.5870   -0.1290    3.3640 c3        1 MOL     -0.323118
    165 H73         7.0260   -1.0370    2.9520 h1        1 MOL      0.113011
    166 H74         7.3530    0.6430    3.4410 h1        1 MOL      0.113011
    167 H75         6.1830   -0.3390    4.3550 h1        1 MOL      0.113011
    168 H76         5.4320   -0.0720    1.5690 hn        1 MOL      0.117660
    169 Ca1        -2.0770   -0.1130   -0.3320 Ca        1 MOL      1.713693
    170 O24        -1.5750   -0.0090    2.7800 oh        1 MOL     -0.834759
    171 H77        -1.4730   -0.0660    3.7230 ho        1 MOL      0.405173
    172 H78        -0.6780    0.0400    2.4390 ho        1 MOL      0.405173
    173 O25        -3.9830   -0.8310    1.6100 oh        1 MOL     -0.834759
    174 H79        -4.8330   -0.5600    1.9740 ho        1 MOL      0.405173
    175 H80        -3.4310   -0.9750    2.3790 ho        1 MOL      0.405173
@<TRIPOS>BOND
     1    1    2 1   
     2    1    4 1   
     3    1    5 1   
     4    1    6 1   
     5    2    3 2   
     6    2    7 1   
     7    7    8 1   
     8    7   15 1   
     9    8    9 1   
    10    8   11 1   
    11    8   16 1   
    12    9   10 2   
    13    9   19 1   
    14   11   12 1   
    15   11   17 1   
    16   11   18 1   
    17   12   13 1   
    18   12   14 1   
    19   19   20 1   
    20   19   24 1   
    21   20   21 1   
    22   20   23 1   
    23   20   25 1   
    24   21   22 2   
    25   21   29 1   
    26   23   26 1   
    27   23   27 1   
    28   23   28 1   
    29   29   30 1   
    30   29   37 1   
    31   30   31 1   
    32   30   33 1   
    33   30   38 1   
    34   31   32 2   
    35   31   41 1   
    36   33   34 1   
    37   33   39 1   
    38   33   40 1   
    39   34   35 1   
    40   34   36 1   
    41   41   42 1   
    42   41   45 1   
    43   42   43 1   
    44   42   46 1   
    45   42   47 1   
    46   43   44 2   
    47   43   48 1   
    48   48   49 1   
    49   48   56 1   
    50   49   50 1   
    51   49   52 1   
    52   49   57 1   
    53   50   51 2   
    54   50   62 1   
    55   52   53 1   
    56   52   58 1   
    57   52   59 1   
    58   53   54 1   
    59   53   55 2   
    60   54   60 1   
    61   54   61 1   
    62   62   63 1   
    63   62   66 1   
    64   63   64 1   
    65   63   67 1   
    66   63   68 1   
    67   64   65 2   
    68   64   69 1   
    69   69   70 1   
    70   69   76 1   
    71   70   71 1   
    72   70   73 1   
    73   70   77 1   
    74   71   72 2   
    75   71   83 1   
    76   73   74 1   
    77   73   75 1   
    78   73   78 1   
    79   74   80 1   
    80   74   81 1   
    81   74   82 1   
    82   75   79 1   
    83   83   84 1   
    84   83   91 1   
    85   84   85 1   
    86   84   87 1   
    87   84   92 1   
    88   85   86 2   
    89   85  102 1   
    90   87   88 1   
    91   87   89 1   
    92   87   93 1   
    93   88   90 1   
    94   88   94 1   
    95   88   95 1   
    96   89   96 1   
    97   89   97 1   
    98   89   98 1   
    99   90   99 1   
   100   90  100 1   
   101   90  101 1   
   102  102  103 1   
   103  102  110 1   
   104  103  104 1   
   105  103  106 1   
   106  103  111 1   
   107  104  105 2   
   108  104  114 1   
   109  106  107 1   
   110  106  112 1   
   111  106  113 1   
   112  107  108 1   
   113  107  109 1   
   114  114  115 1   
   115  114  125 1   
   116  115  116 1   
   117  115  118 1   
   118  115  126 1   
   119  116  117 2   
   120  116  134 1   
   121  118  119 1   
   122  118  127 1   
   123  118  128 1   
   124  119  120 ar  
   125  119  121 ar  
   126  120  122 ar  
   127  120  129 1   
   128  121  123 ar  
   129  121  130 1   
   130  122  124 ar  
   131  122  131 1   
   132  123  124 ar  
   133  123  132 1   
   134  124  133 1   
   135  134  135 1   
   136  134  140 1   
   137  135  136 1   
   138  135  138 1   
   139  135  141 1   
   140  136  137 2   
   141  136  148 1   
   142  138  139 1   
   143  138  142 1   
   144  138  143 1   
   145  139  140 1   
   146  139  144 1   
   147  139  145 1   
   148  140  146 1   
   149  140  147 1   
   150  148  149 1   
   151  148  157 1   
   152  149  150 1   
   153  149  152 1   
   154  149  158 1   
   155  150  151 2   
   156  150  163 1   
   157  152  153 1   
   158  152  159 1   
   159  152  160 1   
   160  153  154 1   
   161  153  161 1   
   162  153  162 1   
   163  154  155 1   
   164  154  156 1   
   165  163  164 1   
   166  163  168 1   
   167  164  165 1   
   168  164  166 1   
   169  164  167 1   
   170  170  171 1   
   171  170  172 1   
   172  173  174 1   
   173  173  175 1   
@<TRIPOS>SUBSTRUCTURE
     1 MOL         1 TEMP              0 ****  ****    0 ROOT
