@<TRIPOS>MOLECULE
MOL
  175   173     1     0     0
SMALL
resp


@<TRIPOS>ATOM
      1 C1         -0.0930   -4.1830    5.8520 c3        1 MOL     -0.349019
      2 C2          0.3190   -4.1360    4.3650 c         1 MOL      0.723754
      3 O1         -0.5630   -4.0460    3.4930 o         1 MOL     -0.531763
      4 H1          0.3760   -5.0430    6.3310 hc        1 MOL      0.081958
      5 H2          0.2330   -3.2700    6.3490 hc        1 MOL      0.081958
      6 H3         -1.1770   -4.2720    5.9270 hc        1 MOL      0.081958
      7 N1          1.6740   -4.1150    4.1750 n         1 MOL     -0.717297
      8 C3          2.2250   -3.7610    2.8040 c3        1 MOL      0.363649
      9 C4          1.8220   -4.8150    1.7700 c         1 MOL      0.446586
     10 O2          1.4750   -5.9870    2.0180 o         1 MOL     -0.559064
     11 C5          3.7270   -3.7560    2.9080 c3        1 MOL     -0.218856
     12 C6          4.4820   -3.3860    1.5880 c         1 MOL      0.560045
     13 O3          5.2730   -4.2070    1.0970 o         1 MOL     -0.595819
     14 O4          4.0250   -2.4390    0.8470 o         1 MOL     -0.595819
     15 H4          2.2350   -4.0200    5.0090 hn        1 MOL      0.339706
     16 H5          1.9370   -2.7660    2.4730 h1        1 MOL     -0.031950
     17 H6          4.0740   -4.6840    3.3540 hc        1 MOL      0.039415
     18 H7          3.9350   -2.9790    3.6350 hc        1 MOL      0.039415
     19 N2          1.8290   -4.3630    0.5280 n         1 MOL     -0.260130
     20 C7          1.5850   -5.2270   -0.6650 c3        1 MOL      0.318015
     21 C8          2.5780   -4.9320   -1.8840 c         1 MOL      0.435343
     22 O5          2.5480   -5.5700   -2.9190 o         1 MOL     -0.536295
     23 C9          0.1630   -5.2160   -1.1150 c3        1 MOL     -0.094652
     24 H8          2.1100   -3.3960    0.4090 hn        1 MOL      0.085330
     25 H9          1.8810   -6.2380   -0.4140 h1        1 MOL     -0.019573
     26 H10        -0.4200   -5.7400   -0.3520 hc        1 MOL      0.008587
     27 H11        -0.2400   -4.2020   -1.1310 hc        1 MOL      0.008587
     28 H12         0.0840   -5.8120   -2.0300 hc        1 MOL      0.008587
     29 N3          3.4370   -3.8670   -1.7190 n         1 MOL     -0.280855
     30 C10         4.3270   -3.4250   -2.8470 c3        1 MOL     -0.064187
     31 C11         5.7230   -2.7310   -2.4300 c         1 MOL      0.457183
     32 O6          6.4030   -2.3020   -3.3490 o         1 MOL     -0.546568
     33 C12         3.6250   -2.3880   -3.6510 c3        1 MOL     -0.027526
     34 C13         3.0060   -1.3240   -2.8340 c         1 MOL      0.640609
     35 O7          1.7670   -1.1750   -2.8990 o         1 MOL     -0.703595
     36 O8          3.6850   -0.6080   -2.0720 o         1 MOL     -0.703595
     37 H13         3.5690   -3.3710   -0.8530 hn        1 MOL      0.165700
     38 H14         4.6740   -4.1790   -3.5520 h1        1 MOL      0.095282
     39 H15         2.8240   -2.9630   -4.1140 hc        1 MOL      0.023035
     40 H16         4.1840   -1.9630   -4.4810 hc        1 MOL      0.023035
     41 N4          6.0070   -2.5860   -1.1180 n         1 MOL     -0.343729
     42 C14         7.2900   -1.9190   -0.7250 c3        1 MOL     -0.130549
     43 C15         7.3720   -0.3440   -0.8990 c         1 MOL      0.345470
     44 O9          8.4380    0.2690   -0.6080 o         1 MOL     -0.571918
     45 H17         5.3700   -2.7250   -0.3520 hn        1 MOL      0.271663
     46 H18         8.1440   -2.4110   -1.1950 h1        1 MOL      0.110076
     47 H19         7.5180   -2.0330    0.3310 h1        1 MOL      0.110076
     48 N5          6.2930    0.3570   -1.3050 n         1 MOL     -0.048793
     49 C16         6.4520    1.7290   -1.8170 c3        1 MOL     -0.142020
     50 C17         6.5800    2.8050   -0.6960 c         1 MOL      0.467589
     51 O10         6.9800    3.9110   -0.9750 o         1 MOL     -0.534172
     52 C18         5.3150    2.1830   -2.7960 c3        1 MOL     -0.139132
     53 C19         3.9200    2.4080   -2.2350 c         1 MOL      0.604623
     54 N6          3.0030    2.8380   -3.1000 n         1 MOL     -0.661828
     55 O11         3.6610    2.2460   -1.0700 o         1 MOL     -0.533990
     56 H20         5.5290   -0.2170   -1.6500 hn        1 MOL      0.229495
     57 H21         7.4010    1.7940   -2.3400 h1        1 MOL      0.121426
     58 H22         5.1950    1.5110   -3.6530 hc        1 MOL      0.057242
     59 H23         5.5480    3.1410   -3.2620 hc        1 MOL      0.057242
     60 H24         3.2810    3.1540   -4.0150 hn        1 MOL      0.328419
     61 H25         2.0510    2.5880   -2.8500 hn        1 MOL      0.328419
     62 N7          6.2030    2.4550    0.5450 n         1 MOL     -0.112709
     63 C20         6.1420    3.3110    1.7380 c3        1 MOL     -0.276186
     64 C21         4.9730    4.3010    1.8640 c         1 MOL      0.493560
     65 O12         5.0500    5.3680    2.5430 o         1 MOL     -0.565148
     66 H26         5.8710    1.5050    0.6130 hn        1 MOL      0.112896
     67 H27         7.0380    3.9100    1.6340 h1        1 MOL      0.114333
     68 H28         6.2940    2.6230    2.5790 h1        1 MOL      0.114333
     69 N8          3.8540    3.9620    1.2460 n         1 MOL     -0.097202
     70 C22         2.5630    4.5990    1.3960 c3        1 MOL     -0.357001
     71 C23         1.4000    3.6260    1.3330 c         1 MOL      0.724914
     72 O13         1.6050    2.5290    0.9280 o         1 MOL     -0.624232
     73 C24         2.4220    5.6860    0.3540 c3        1 MOL      0.622799
     74 C25         3.2810    6.9100    0.6190 c3        1 MOL     -0.493362
     75 O14         2.7300    5.2720   -0.9420 oh        1 MOL     -0.603227
     76 H29         3.8540    3.0720    0.7700 hn        1 MOL      0.174120
     77 H30         2.5030    5.1620    2.3290 h1        1 MOL      0.105460
     78 H31         1.3980    6.0860    0.3880 h1        1 MOL     -0.075033
     79 H32         2.5500    4.3410   -1.0780 ho        1 MOL      0.294968
     80 H33         3.1680    7.6610   -0.1700 hc        1 MOL      0.117309
     81 H34         2.9940    7.2760    1.6060 hc        1 MOL      0.117309
     82 H35         4.3340    6.6550    0.7480 hc        1 MOL      0.117309
     83 N9          0.2200    4.0170    1.7820 n         1 MOL     -0.555943
     84 C26        -0.9200    3.1100    1.8110 c3        1 MOL     -0.038648
     85 C27        -1.5490    3.1920    0.4100 c         1 MOL      0.549011
     86 O15        -1.9830    4.2320   -0.1210 o         1 MOL     -0.589874
     87 C28        -1.9160    3.5390    2.9090 c3        1 MOL      0.059300
     88 C29        -1.3210    3.7140    4.3530 c3        1 MOL      0.245322
     89 C30        -3.0910    2.5260    2.8900 c3        1 MOL     -0.304677
     90 C31        -2.2930    4.2710    5.3810 c3        1 MOL     -0.152802
     91 H36         0.0230    4.9720    2.0230 hn        1 MOL      0.312304
     92 H37        -0.5800    2.0900    2.0230 h1        1 MOL      0.111374
     93 H38        -2.2270    4.5270    2.5800 hc        1 MOL      0.008828
     94 H39        -0.5030    4.4170    4.2550 hc        1 MOL     -0.062422
     95 H40        -0.8000    2.8390    4.7530 hc        1 MOL     -0.062422
     96 H41        -3.4740    2.6380    1.8750 hc        1 MOL      0.069645
     97 H42        -2.7220    1.5060    2.9610 hc        1 MOL      0.069645
     98 H43        -3.8320    2.6860    3.6780 hc        1 MOL      0.069645
     99 H44        -3.0710    3.5560    5.6420 hc        1 MOL      0.023490
    100 H45        -1.7290    4.5240    6.2750 hc        1 MOL      0.023490
    101 H46        -2.7240    5.1880    4.9730 hc        1 MOL      0.023490
    102 N10        -1.5730    2.1100   -0.3780 n         1 MOL     -0.250549
    103 C32        -2.4040    1.9090   -1.6050 c3        1 MOL      0.085087
    104 C33        -3.7520    1.2550   -1.2670 c         1 MOL      0.551112
    105 O16        -3.9130    0.5150   -0.3460 o         1 MOL     -0.353317
    106 C34        -1.6630    1.1930   -2.7360 c3        1 MOL     -0.223053
    107 C35        -0.2680    1.7530   -2.9810 c         1 MOL      0.720274
    108 O17         0.6660    1.5230   -2.1660 o         1 MOL     -0.673551
    109 O18        -0.0820    2.3700   -4.0460 o         1 MOL     -0.673551
    110 H47        -1.0310    1.3140   -0.0670 hn        1 MOL      0.098928
    111 H48        -2.5980    2.9290   -1.9580 h1        1 MOL      0.042360
    112 H49        -2.2830    1.2490   -3.6280 hc        1 MOL      0.068601
    113 H50        -1.5880    0.1450   -2.4360 hc        1 MOL      0.068601
    114 N11        -4.8080    1.6450   -2.0120 n         1 MOL     -0.700616
    115 C36        -6.2480    1.3770   -1.5190 c3        1 MOL      0.404422
    116 C37        -6.5330   -0.0740   -1.0140 c         1 MOL      0.246500
    117 O19        -6.9260   -0.1900    0.1450 o         1 MOL     -0.438497
    118 C38        -7.2590    1.9040   -2.5250 c3        1 MOL     -0.390350
    119 C39        -8.6480    1.6260   -2.0820 ca        1 MOL      0.230272
    120 C40        -9.2310    2.4830   -1.1530 ca        1 MOL     -0.268177
    121 C41        -9.5540    0.6190   -2.6270 ca        1 MOL     -0.268177
    122 C42       -10.5760    2.3210   -0.6650 ca        1 MOL     -0.037225
    123 C43       -10.8590    0.4640   -2.1630 ca        1 MOL     -0.037225
    124 C44       -11.3670    1.3150   -1.1680 ca        1 MOL     -0.170269
    125 H51        -4.6650    2.2750   -2.7910 hn        1 MOL      0.337389
    126 H52        -6.3680    2.0730   -0.6870 h1        1 MOL      0.037249
    127 H53        -7.2090    1.4190   -3.4990 hc        1 MOL      0.118429
    128 H54        -7.0860    2.9640   -2.6830 hc        1 MOL      0.118429
    129 H55        -8.8620    3.4190   -0.7620 ha        1 MOL      0.137186
    130 H56        -9.3130    0.0610   -3.5240 ha        1 MOL      0.137186
    131 H57       -11.0100    2.9500    0.0850 ha        1 MOL      0.097329
    132 H58       -11.5220   -0.2670   -2.6080 ha        1 MOL      0.097329
    133 H59       -12.3620    1.2790   -0.7520 ha        1 MOL      0.108918
    134 N12        -6.0580   -1.0870   -1.7660 n         1 MOL      0.064582
    135 C45        -6.2570   -2.4280   -1.3320 c3        1 MOL     -0.094411
    136 C46        -5.7360   -2.7090    0.0830 c         1 MOL      0.382457
    137 O20        -6.1510   -3.6520    0.7340 o         1 MOL     -0.509106
    138 C47        -5.7090   -3.3570   -2.4290 c3        1 MOL      0.125584
    139 C48        -5.7790   -2.4910   -3.6750 c3        1 MOL     -0.226803
    140 C49        -5.6150   -1.0660   -3.1460 c3        1 MOL      0.164139
    141 H60        -7.3250   -2.6470   -1.3560 h1        1 MOL      0.055682
    142 H61        -4.7060   -3.7330   -2.2550 hc        1 MOL      0.018227
    143 H62        -6.2720   -4.2810   -2.5570 hc        1 MOL      0.018227
    144 H63        -4.8880   -2.6820   -4.2770 hc        1 MOL      0.064285
    145 H64        -6.6810   -2.6240   -4.2610 hc        1 MOL      0.064285
    146 H65        -4.6130   -0.6590   -3.0410 h1        1 MOL     -0.034277
    147 H66        -6.2320   -0.3330   -3.6690 h1        1 MOL     -0.034277
    148 N13        -4.6980   -1.9380    0.5740 n         1 MOL     -0.244910
    149 C50        -4.0230   -2.1050    1.8710 c3        1 MOL     -0.136548
    150 C51        -4.7520   -1.4690    3.0010 c         1 MOL      0.476982
    151 O21        -4.6900   -1.9620    4.1290 o         1 MOL     -0.576191
    152 C52        -2.5160   -1.6540    1.9220 c3        1 MOL      0.097245
    153 C53        -1.7610   -2.0210    0.6020 c3        1 MOL     -0.202988
    154 C54        -0.4180   -1.2620    0.5060 c         1 MOL      0.525756
    155 O22         0.4950   -1.6530   -0.2400 o         1 MOL     -0.617200
    156 O23        -0.3200   -0.1230    0.9690 o         1 MOL     -0.617200
    157 H67        -4.4230   -1.1530   -0.0070 hn        1 MOL      0.099060
    158 H68        -3.9770   -3.1760    2.0740 h1        1 MOL      0.125200
    159 H69        -2.1160   -2.0440    2.8580 hc        1 MOL      0.011023
    160 H70        -2.5730   -0.5630    1.9920 hc        1 MOL      0.011023
    161 H71        -2.2790   -1.8040   -0.3260 hc        1 MOL      0.103977
    162 H72        -1.5130   -3.0830    0.5920 hc        1 MOL      0.103977
    163 N14        -5.5410   -0.4460    2.6670 n         1 MOL     -0.037442
    164 C55        -6.3210    0.3520    3.6430 c3        1 MOL     -0.171668
    165 H73        -6.1110   -0.0030    4.6520 h1        1 MOL      0.069795
    166 H74        -6.0400    1.4020    3.5620 h1        1 MOL      0.069795
    167 H75        -7.3850    0.2430    3.4350 h1        1 MOL      0.069795
    168 H76        -5.5700   -0.2280    1.6840 hn        1 MOL      0.071163
    169 Ca1         2.0850    0.2950   -0.4030 Ca        1 MOL      1.727279
    170 O24         1.7810   -0.0000    2.6300 oh        1 MOL     -0.795060
    171 H77         0.8440   -0.1240    2.7100 ho        1 MOL      0.382953
    172 H78         2.1090    0.0040    3.5300 ho        1 MOL      0.382953
    173 O25         4.3320    0.0100    1.2320 oh        1 MOL     -0.795060
    174 H79         4.6090    0.2470    2.1210 ho        1 MOL      0.382953
    175 H80         4.3150   -0.9380    1.2300 ho        1 MOL      0.382953
@<TRIPOS>BOND
     1    1    2 1   
     2    1    4 1   
     3    1    5 1   
     4    1    6 1   
     5    2    3 2   
     6    2    7 1   
     7    7    8 1   
     8    7   15 1   
     9    8    9 1   
    10    8   11 1   
    11    8   16 1   
    12    9   10 2   
    13    9   19 1   
    14   11   12 1   
    15   11   17 1   
    16   11   18 1   
    17   12   13 1   
    18   12   14 1   
    19   19   20 1   
    20   19   24 1   
    21   20   21 1   
    22   20   23 1   
    23   20   25 1   
    24   21   22 2   
    25   21   29 1   
    26   23   26 1   
    27   23   27 1   
    28   23   28 1   
    29   29   30 1   
    30   29   37 1   
    31   30   31 1   
    32   30   33 1   
    33   30   38 1   
    34   31   32 2   
    35   31   41 1   
    36   33   34 1   
    37   33   39 1   
    38   33   40 1   
    39   34   35 1   
    40   34   36 1   
    41   41   42 1   
    42   41   45 1   
    43   42   43 1   
    44   42   46 1   
    45   42   47 1   
    46   43   44 2   
    47   43   48 1   
    48   48   49 1   
    49   48   56 1   
    50   49   50 1   
    51   49   52 1   
    52   49   57 1   
    53   50   51 2   
    54   50   62 1   
    55   52   53 1   
    56   52   58 1   
    57   52   59 1   
    58   53   54 1   
    59   53   55 2   
    60   54   60 1   
    61   54   61 1   
    62   62   63 1   
    63   62   66 1   
    64   63   64 1   
    65   63   67 1   
    66   63   68 1   
    67   64   65 2   
    68   64   69 1   
    69   69   70 1   
    70   69   76 1   
    71   70   71 1   
    72   70   73 1   
    73   70   77 1   
    74   71   72 2   
    75   71   83 1   
    76   73   74 1   
    77   73   75 1   
    78   73   78 1   
    79   74   80 1   
    80   74   81 1   
    81   74   82 1   
    82   75   79 1   
    83   83   84 1   
    84   83   91 1   
    85   84   85 1   
    86   84   87 1   
    87   84   92 1   
    88   85   86 2   
    89   85  102 1   
    90   87   88 1   
    91   87   89 1   
    92   87   93 1   
    93   88   90 1   
    94   88   94 1   
    95   88   95 1   
    96   89   96 1   
    97   89   97 1   
    98   89   98 1   
    99   90   99 1   
   100   90  100 1   
   101   90  101 1   
   102  102  103 1   
   103  102  110 1   
   104  103  104 1   
   105  103  106 1   
   106  103  111 1   
   107  104  105 2   
   108  104  114 1   
   109  106  107 1   
   110  106  112 1   
   111  106  113 1   
   112  107  108 1   
   113  107  109 1   
   114  114  115 1   
   115  114  125 1   
   116  115  116 1   
   117  115  118 1   
   118  115  126 1   
   119  116  117 2   
   120  116  134 1   
   121  118  119 1   
   122  118  127 1   
   123  118  128 1   
   124  119  120 ar  
   125  119  121 ar  
   126  120  122 ar  
   127  120  129 1   
   128  121  123 ar  
   129  121  130 1   
   130  122  124 ar  
   131  122  131 1   
   132  123  124 ar  
   133  123  132 1   
   134  124  133 1   
   135  134  135 1   
   136  134  140 1   
   137  135  136 1   
   138  135  138 1   
   139  135  141 1   
   140  136  137 2   
   141  136  148 1   
   142  138  139 1   
   143  138  142 1   
   144  138  143 1   
   145  139  140 1   
   146  139  144 1   
   147  139  145 1   
   148  140  146 1   
   149  140  147 1   
   150  148  149 1   
   151  148  157 1   
   152  149  150 1   
   153  149  152 1   
   154  149  158 1   
   155  150  151 2   
   156  150  163 1   
   157  152  153 1   
   158  152  159 1   
   159  152  160 1   
   160  153  154 1   
   161  153  161 1   
   162  153  162 1   
   163  154  155 1   
   164  154  156 1   
   165  163  164 1   
   166  163  168 1   
   167  164  165 1   
   168  164  166 1   
   169  164  167 1   
   170  170  171 1   
   171  170  172 1   
   172  173  174 1   
   173  173  175 1   
@<TRIPOS>SUBSTRUCTURE
     1 MOL         1 TEMP              0 ****  ****    0 ROOT
