@<TRIPOS>MOLECULE
MOL
  172   171     1     0     0
SMALL
resp


@<TRIPOS>ATOM
      1 C1          0.1730    2.6110    5.8330 c3        1 MOL     -0.439945
      2 C2         -0.1350    2.4930    4.3280 c         1 MOL      0.752091
      3 O1          0.6090    2.9790    3.5160 o         1 MOL     -0.583261
      4 H1         -0.5240    1.9890    6.3960 hc        1 MOL      0.104392
      5 H2          1.1920    2.2770    6.0230 hc        1 MOL      0.104392
      6 H3          0.0650    3.6500    6.1470 hc        1 MOL      0.104392
      7 N1         -1.3470    2.0560    4.0440 n         1 MOL     -0.570401
      8 C3         -1.9120    1.9720    2.7560 c3        1 MOL      0.185657
      9 C4         -2.2460    3.3530    2.2400 c         1 MOL      0.490359
     10 O2         -3.2060    4.0060    2.7020 o         1 MOL     -0.620812
     11 C5         -3.0910    1.0000    2.9120 c3        1 MOL     -0.244563
     12 C6         -3.9600    0.6270    1.6910 c         1 MOL      0.810383
     13 O3         -4.9880   -0.0230    1.9680 o         1 MOL     -0.715377
     14 O4         -3.5570    0.8390    0.5110 o         1 MOL     -0.715377
     15 H4         -1.9510    1.6770    4.7630 hn        1 MOL      0.296956
     16 H5         -1.2780    1.4080    2.0650 h1        1 MOL      0.017171
     17 H6         -3.8740    1.3650    3.5740 hc        1 MOL      0.045066
     18 H7         -2.6900    0.0670    3.3110 hc        1 MOL      0.045066
     19 N2         -1.6220    3.8460    1.2140 n         1 MOL     -0.163116
     20 C7         -1.8080    5.1400    0.5680 c3        1 MOL      0.007390
     21 C8         -2.8560    5.1820   -0.6160 c         1 MOL      0.637901
     22 O5         -3.1000    6.2440   -1.1720 o         1 MOL     -0.585745
     23 C9         -0.4950    5.7270    0.1770 c3        1 MOL     -0.305765
     24 H8         -1.0570    3.2130    0.6580 hn        1 MOL      0.254219
     25 H9         -2.2300    5.7690    1.3600 h1        1 MOL      0.075823
     26 H10        -0.0650    6.2910    1.0100 hc        1 MOL      0.080593
     27 H11         0.1660    4.8840   -0.0170 hc        1 MOL      0.080593
     28 H12        -0.5260    6.2990   -0.7550 hc        1 MOL      0.080593
     29 N3         -3.6810    4.1280   -0.8760 n         1 MOL     -0.387552
     30 C10        -4.8130    4.1050   -1.8460 c3        1 MOL      0.075772
     31 C11        -6.1300    3.3930   -1.3350 c         1 MOL      0.402566
     32 O6         -7.1330    3.4150   -2.1180 o         1 MOL     -0.519769
     33 C12        -4.3360    3.4650   -3.1390 c3        1 MOL     -0.160357
     34 C13        -3.6290    2.0900   -2.9880 c         1 MOL      0.863775
     35 O7         -4.3280    1.1230   -2.7670 o         1 MOL     -0.785889
     36 O8         -2.4340    1.8430   -3.1390 o         1 MOL     -0.785889
     37 H13        -3.4940    3.2700   -0.3810 hn        1 MOL      0.001223
     38 H14        -5.1120    5.1430   -2.0380 h1        1 MOL      0.090302
     39 H15        -3.6410    4.1160   -3.6720 hc        1 MOL      0.030101
     40 H16        -5.2170    3.2990   -3.7630 hc        1 MOL      0.030101
     41 N4         -6.0830    2.7160   -0.1560 n         1 MOL     -0.257030
     42 C14        -7.3070    2.2250    0.5100 c3        1 MOL     -0.278381
     43 C15        -7.8380    0.9240    0.0080 c         1 MOL      0.570660
     44 O9         -8.9220    0.5380    0.4860 o         1 MOL     -0.612786
     45 H17        -5.2010    2.5480    0.2930 hn        1 MOL      0.286100
     46 H18        -8.1100    2.9530    0.3530 h1        1 MOL      0.133765
     47 H19        -7.0720    2.0940    1.5530 h1        1 MOL      0.133765
     48 N5         -7.0300    0.1870   -0.7180 n         1 MOL     -0.270407
     49 C16        -7.3780   -1.0620   -1.3350 c3        1 MOL     -0.060126
     50 C17        -7.0180   -2.2300   -0.4290 c         1 MOL      0.507048
     51 O10        -7.2740   -3.3920   -0.7680 o         1 MOL     -0.598538
     52 C18        -6.5920   -1.1770   -2.6030 c3        1 MOL     -0.145731
     53 C19        -5.1690   -1.6170   -2.6080 c         1 MOL      0.590149
     54 N6         -4.7470   -2.2920   -3.6580 n         1 MOL     -0.695360
     55 O11        -4.4130   -1.4760   -1.6410 o         1 MOL     -0.572524
     56 H20        -6.1910    0.6790   -0.9750 hn        1 MOL      0.264101
     57 H21        -8.4490   -1.2250   -1.4560 h1        1 MOL      0.105178
     58 H22        -6.8100   -0.2300   -3.0930 hc        1 MOL      0.069263
     59 H23        -7.0930   -1.8640   -3.2950 hc        1 MOL      0.069263
     60 H24        -5.2020   -2.3090   -4.5610 hn        1 MOL      0.336759
     61 H25        -3.7450   -2.4020   -3.6330 hn        1 MOL      0.336759
     62 N7         -6.4600   -1.9910    0.7460 n         1 MOL     -0.203663
     63 C20        -6.3060   -2.9570    1.8470 c3        1 MOL     -0.172900
     64 C21        -5.1400   -3.8540    1.7490 c         1 MOL      0.542321
     65 O12        -5.0270   -4.8520    2.4490 o         1 MOL     -0.585114
     66 H26        -6.2320   -1.0540    1.0280 hn        1 MOL      0.274907
     67 H27        -7.1620   -3.6190    1.8200 h1        1 MOL      0.093705
     68 H28        -6.2810   -2.4510    2.8110 h1        1 MOL      0.093705
     69 N8         -4.1400   -3.4910    0.9260 n         1 MOL     -0.084809
     70 C22        -2.8840   -4.2390    0.8410 c3        1 MOL     -0.324276
     71 C23        -1.6940   -3.2760    0.7610 c         1 MOL      0.855003
     72 O13        -1.8340   -2.1060    0.3740 o         1 MOL     -0.654062
     73 C24        -2.9160   -5.2340   -0.3310 c3        1 MOL      0.384510
     74 C25        -4.2420   -6.0470   -0.3200 c3        1 MOL     -0.432161
     75 O14        -2.8720   -4.5910   -1.5670 oh        1 MOL     -0.584100
     76 H29        -4.1340   -2.5950    0.4580 hn        1 MOL      0.132740
     77 H30        -2.8030   -4.8010    1.7780 h1        1 MOL      0.112887
     78 H31        -2.0250   -5.8620   -0.3030 h1        1 MOL     -0.019683
     79 H32        -3.5120   -5.1300   -2.0340 ho        1 MOL      0.379412
     80 H33        -5.0760   -5.4500   -0.6760 hc        1 MOL      0.109918
     81 H34        -4.1750   -6.7860   -1.1280 hc        1 MOL      0.109918
     82 H35        -4.3150   -6.5520    0.6450 hc        1 MOL      0.109918
     83 N9         -0.5680   -3.6480    1.3290 n         1 MOL     -0.647961
     84 C26         0.6910   -2.8290    1.3530 c3        1 MOL     -0.121356
     85 C27         1.4870   -3.0590    0.0560 c         1 MOL      0.746604
     86 O15         1.8760   -4.1710   -0.2950 o         1 MOL     -0.606571
     87 C28         1.5510   -3.2700    2.6040 c3        1 MOL      0.070591
     88 C29         0.7440   -3.4440    3.8970 c3        1 MOL      0.281367
     89 C30         2.6800   -2.2730    2.6610 c3        1 MOL     -0.047853
     90 C31         1.5800   -4.0380    5.0200 c3        1 MOL     -0.268005
     91 H36        -0.5300   -4.5830    1.7130 hn        1 MOL      0.307388
     92 H37         0.4160   -1.7850    1.5320 h1        1 MOL      0.132867
     93 H38         1.9420   -4.2660    2.3980 hc        1 MOL     -0.016376
     94 H39        -0.2050   -3.9780    3.8650 hc        1 MOL     -0.041230
     95 H40         0.4870   -2.4580    4.2880 hc        1 MOL     -0.041230
     96 H41         3.1280   -2.1580    1.6750 hc        1 MOL     -0.002571
     97 H42         2.3670   -1.4270    3.2720 hc        1 MOL     -0.002571
     98 H43         3.5020   -2.7780    3.1760 hc        1 MOL     -0.002571
     99 H44         2.4980   -3.4600    4.9740 hc        1 MOL      0.043731
    100 H45         1.0450   -3.8690    5.9530 hc        1 MOL      0.043731
    101 H46         1.6560   -5.1150    4.8490 hc        1 MOL      0.043731
    102 N10         1.9410   -1.9450   -0.5040 n         1 MOL     -0.396258
    103 C32         2.9990   -1.7740   -1.4670 c3        1 MOL      0.053953
    104 C33         4.3750   -1.3650   -0.9040 c         1 MOL      0.541736
    105 O16         4.4760   -0.8070    0.1850 o         1 MOL     -0.264302
    106 C34         2.5450   -0.7700   -2.5640 c3        1 MOL     -0.466639
    107 C35         1.2170   -0.9730   -3.1730 c         1 MOL      0.912150
    108 O17         0.3340   -0.1820   -2.8860 o         1 MOL     -0.745209
    109 O18         1.0870   -1.8360   -4.0730 o         1 MOL     -0.745209
    110 H47         1.5360   -1.0580   -0.2260 hn        1 MOL      0.112250
    111 H48         3.2210   -2.7170   -1.9790 h1        1 MOL      0.051405
    112 H49         3.3000   -0.6580   -3.3440 hc        1 MOL      0.143938
    113 H50         2.6040    0.2410   -2.1710 hc        1 MOL      0.143938
    114 N11         5.4750   -1.6030   -1.6360 n         1 MOL     -0.685589
    115 C36         6.8230   -1.2860   -1.1730 c3        1 MOL      0.261718
    116 C37         7.0930    0.1960   -0.7270 c         1 MOL      0.403390
    117 O19         7.6340    0.4110    0.3370 o         1 MOL     -0.485607
    118 C38         7.8400   -1.8550   -2.1540 c3        1 MOL     -0.095256
    119 C39         9.2970   -1.6290   -1.7780 ca        1 MOL      0.065451
    120 C40         9.9920   -0.5110   -2.2580 ca        1 MOL     -0.228640
    121 C41         9.8390   -2.4090   -0.7170 ca        1 MOL     -0.228640
    122 C42        11.3080   -0.2910   -1.7780 ca        1 MOL     -0.032395
    123 C43        11.1110   -2.0790   -0.2140 ca        1 MOL     -0.032395
    124 C44        11.9280   -1.0730   -0.7970 ca        1 MOL     -0.175543
    125 H51         5.3500   -2.0810   -2.5120 hn        1 MOL      0.343792
    126 H52         6.8960   -1.7490   -0.1820 h1        1 MOL      0.041831
    127 H53         7.6330   -1.4800   -3.1520 hc        1 MOL      0.046412
    128 H54         7.6760   -2.9300   -2.2170 hc        1 MOL      0.046412
    129 H55         9.6180    0.1750   -3.0020 ha        1 MOL      0.144873
    130 H56         9.3350   -3.2480   -0.2570 ha        1 MOL      0.144873
    131 H57        11.8330    0.5350   -2.2340 ha        1 MOL      0.088368
    132 H58        11.4180   -2.6330    0.6700 ha        1 MOL      0.088368
    133 H59        12.9530   -0.9640   -0.4780 ha        1 MOL      0.119665
    134 N12         6.5920    1.2510   -1.3920 n         1 MOL     -0.104598
    135 C45         6.5630    2.6640   -0.9360 c3        1 MOL     -0.022603
    136 C46         5.8020    2.8370    0.3470 c         1 MOL      0.294336
    137 O20         6.1800    3.6650    1.1690 o         1 MOL     -0.487302
    138 C47         5.9490    3.4930   -2.0830 c3        1 MOL      0.043889
    139 C48         6.1800    2.6600   -3.3700 c3        1 MOL     -0.259617
    140 C49         6.2050    1.2540   -2.7830 c3        1 MOL      0.396649
    141 H60         7.5890    3.0290   -0.9040 h1        1 MOL      0.059133
    142 H61         4.8900    3.7210   -2.0000 hc        1 MOL      0.036652
    143 H62         6.4040    4.4760   -2.0910 hc        1 MOL      0.036652
    144 H63         5.3860    2.7630   -4.1090 hc        1 MOL      0.068845
    145 H64         7.1830    2.8110   -3.7790 hc        1 MOL      0.068845
    146 H65         5.2550    0.7480   -2.9600 h1        1 MOL     -0.115622
    147 H66         7.0290    0.7020   -3.2500 h1        1 MOL     -0.115622
    148 N13         4.7330    2.0420    0.5070 n         1 MOL     -0.145465
    149 C50         3.9400    1.9980    1.7300 c3        1 MOL     -0.077608
    150 C51         4.7120    1.2680    2.8510 c         1 MOL      0.453141
    151 O21         4.7750    1.6950    4.0040 o         1 MOL     -0.580414
    152 C52         2.5460    1.3540    1.5210 c3        1 MOL     -0.016485
    153 C53         1.7010    2.0600    0.4130 c3        1 MOL      0.096800
    154 C54         0.3880    1.3550   -0.0650 c         1 MOL      0.450542
    155 O22        -0.4480    2.0220   -0.6580 o         1 MOL     -0.612180
    156 O23         0.0980    0.1460    0.0970 o         1 MOL     -0.612180
    157 H67         4.5910    1.2740   -0.1400 hn        1 MOL      0.084369
    158 H68         3.8250    3.0240    2.1040 h1        1 MOL      0.107731
    159 H69         2.0710    1.3730    2.5090 hc        1 MOL      0.030441
    160 H70         2.6580    0.3060    1.2770 hc        1 MOL      0.030441
    161 H71         2.2800    2.3150   -0.4850 hc        1 MOL     -0.011652
    162 H72         1.4180    3.0400    0.8210 hc        1 MOL     -0.011652
    163 N14         5.4210    0.1780    2.6130 n         1 MOL     -0.009009
    164 C55         6.2200   -0.5960    3.5270 c3        1 MOL     -0.120782
    165 H73         5.6210   -1.4120    3.9310 h1        1 MOL      0.048045
    166 H74         7.0830   -1.0050    3.0000 h1        1 MOL      0.048045
    167 H75         6.5610    0.0420    4.3420 h1        1 MOL      0.048045
    168 H76         5.3400   -0.2070    1.6900 hn        1 MOL      0.030876
    169 Ca1        -1.9950   -0.0700   -1.3950 Ca        1 MOL      1.777446
    170 O24        -1.4920   -2.4150   -2.7820 oh        1 MOL     -0.891932
    171 H77        -0.7040   -2.5340   -3.3120 ho        1 MOL      0.403039
    172 H78        -1.6620   -3.2770   -2.4040 ho        1 MOL      0.403039
@<TRIPOS>BOND
     1    1    2 1   
     2    1    4 1   
     3    1    5 1   
     4    1    6 1   
     5    2    3 2   
     6    2    7 1   
     7    7    8 1   
     8    7   15 1   
     9    8    9 1   
    10    8   11 1   
    11    8   16 1   
    12    9   10 2   
    13    9   19 1   
    14   11   12 1   
    15   11   17 1   
    16   11   18 1   
    17   12   13 1   
    18   12   14 1   
    19   19   20 1   
    20   19   24 1   
    21   20   21 1   
    22   20   23 1   
    23   20   25 1   
    24   21   22 2   
    25   21   29 1   
    26   23   26 1   
    27   23   27 1   
    28   23   28 1   
    29   29   30 1   
    30   29   37 1   
    31   30   31 1   
    32   30   33 1   
    33   30   38 1   
    34   31   32 2   
    35   31   41 1   
    36   33   34 1   
    37   33   39 1   
    38   33   40 1   
    39   34   35 1   
    40   34   36 1   
    41   41   42 1   
    42   41   45 1   
    43   42   43 1   
    44   42   46 1   
    45   42   47 1   
    46   43   44 2   
    47   43   48 1   
    48   48   49 1   
    49   48   56 1   
    50   49   50 1   
    51   49   52 1   
    52   49   57 1   
    53   50   51 2   
    54   50   62 1   
    55   52   53 1   
    56   52   58 1   
    57   52   59 1   
    58   53   54 1   
    59   53   55 2   
    60   54   60 1   
    61   54   61 1   
    62   62   63 1   
    63   62   66 1   
    64   63   64 1   
    65   63   67 1   
    66   63   68 1   
    67   64   65 2   
    68   64   69 1   
    69   69   70 1   
    70   69   76 1   
    71   70   71 1   
    72   70   73 1   
    73   70   77 1   
    74   71   72 2   
    75   71   83 1   
    76   73   74 1   
    77   73   75 1   
    78   73   78 1   
    79   74   80 1   
    80   74   81 1   
    81   74   82 1   
    82   75   79 1   
    83   83   84 1   
    84   83   91 1   
    85   84   85 1   
    86   84   87 1   
    87   84   92 1   
    88   85   86 2   
    89   85  102 1   
    90   87   88 1   
    91   87   89 1   
    92   87   93 1   
    93   88   90 1   
    94   88   94 1   
    95   88   95 1   
    96   89   96 1   
    97   89   97 1   
    98   89   98 1   
    99   90   99 1   
   100   90  100 1   
   101   90  101 1   
   102  102  103 1   
   103  102  110 1   
   104  103  104 1   
   105  103  106 1   
   106  103  111 1   
   107  104  105 2   
   108  104  114 1   
   109  106  107 1   
   110  106  112 1   
   111  106  113 1   
   112  107  108 1   
   113  107  109 1   
   114  114  115 1   
   115  114  125 1   
   116  115  116 1   
   117  115  118 1   
   118  115  126 1   
   119  116  117 2   
   120  116  134 1   
   121  118  119 1   
   122  118  127 1   
   123  118  128 1   
   124  119  120 ar  
   125  119  121 ar  
   126  120  122 ar  
   127  120  129 1   
   128  121  123 ar  
   129  121  130 1   
   130  122  124 ar  
   131  122  131 1   
   132  123  124 ar  
   133  123  132 1   
   134  124  133 1   
   135  134  135 1   
   136  134  140 1   
   137  135  136 1   
   138  135  138 1   
   139  135  141 1   
   140  136  137 2   
   141  136  148 1   
   142  138  139 1   
   143  138  142 1   
   144  138  143 1   
   145  139  140 1   
   146  139  144 1   
   147  139  145 1   
   148  140  146 1   
   149  140  147 1   
   150  148  149 1   
   151  148  157 1   
   152  149  150 1   
   153  149  152 1   
   154  149  158 1   
   155  150  151 2   
   156  150  163 1   
   157  152  153 1   
   158  152  159 1   
   159  152  160 1   
   160  153  154 1   
   161  153  161 1   
   162  153  162 1   
   163  154  155 1   
   164  154  156 1   
   165  163  164 1   
   166  163  168 1   
   167  164  165 1   
   168  164  166 1   
   169  164  167 1   
   170  170  171 1   
   171  170  172 1   
@<TRIPOS>SUBSTRUCTURE
     1 MOL         1 TEMP              0 ****  ****    0 ROOT
