@<TRIPOS>MOLECULE
MOL
  189   185     1     0     0
SMALL
resp


@<TRIPOS>ATOM
      1 C1         -1.1640    2.9960    6.3570 c3        1 MOL     -0.437992
      2 C2         -1.3720    2.7650    4.7990 c         1 MOL      0.738939
      3 O1         -1.0000    1.7490    4.2310 o         1 MOL     -0.602612
      4 H1         -0.5660    2.1830    6.7680 hc        1 MOL      0.114718
      5 H2         -0.6500    3.9430    6.5190 hc        1 MOL      0.114718
      6 H3         -2.1340    3.0200    6.8540 hc        1 MOL      0.114718
      7 N1         -2.1600    3.6590    4.1700 n         1 MOL     -0.692640
      8 C3         -2.7830    3.3470    2.8650 c3        1 MOL      0.457386
      9 C4         -2.8100    4.5590    1.8410 c         1 MOL      0.349866
     10 O2         -2.8550    5.6790    2.3580 o         1 MOL     -0.587619
     11 C5         -4.1950    2.8750    3.1410 c3        1 MOL     -0.415874
     12 C6         -4.9540    2.4140    1.8720 c         1 MOL      0.797234
     13 O3         -6.1770    2.3020    2.0620 o         1 MOL     -0.679910
     14 O4         -4.4000    1.9870    0.8170 o         1 MOL     -0.679910
     15 H4         -2.4990    4.4500    4.6960 hn        1 MOL      0.339025
     16 H5         -2.2980    2.4760    2.4320 h1        1 MOL      0.023614
     17 H6         -4.6220    3.7650    3.6030 hc        1 MOL      0.069671
     18 H7         -4.1580    1.9720    3.7500 hc        1 MOL      0.069671
     19 N2         -2.7970    4.3750    0.5520 n         1 MOL     -0.062675
     20 C7         -3.0210    5.3900   -0.4580 c3        1 MOL     -0.065381
     21 C8         -3.9320    4.8600   -1.5930 c         1 MOL      0.417848
     22 O5         -4.2010    5.6700   -2.5600 o         1 MOL     -0.540374
     23 C9         -1.6260    5.7990   -0.8570 c3        1 MOL      0.230988
     24 C10        -1.4110    7.1510   -1.5210 c3        1 MOL      0.023785
     25 C11        -1.0200    4.6950   -1.7520 c3        1 MOL     -0.347457
     26 C12        -1.8570    8.2650   -0.5880 c3        1 MOL     -0.129310
     27 H8         -2.5950    3.4290    0.2390 hn        1 MOL      0.021404
     28 H9         -3.5870    6.2050   -0.0140 h1        1 MOL      0.108436
     29 H10        -1.0260    5.7760    0.0570 hc        1 MOL      0.037612
     30 H11        -1.8740    7.2060   -2.5080 hc        1 MOL     -0.005697
     31 H12        -0.3410    7.3190   -1.6800 hc        1 MOL     -0.005697
     32 H13        -1.3450    3.6890   -1.4860 hc        1 MOL      0.082780
     33 H14        -1.3140    4.8330   -2.7890 hc        1 MOL      0.082780
     34 H15         0.0500    4.7870   -1.6000 hc        1 MOL      0.082780
     35 H16        -1.2140    8.2330    0.2940 hc        1 MOL      0.010259
     36 H17        -1.7750    9.2280   -1.0950 hc        1 MOL      0.010259
     37 H18        -2.8860    8.0820   -0.2820 hc        1 MOL      0.010259
     38 N3         -4.3570    3.5920   -1.5590 n         1 MOL     -0.347561
     39 C13        -4.9090    3.0010   -2.8350 c3        1 MOL      0.045063
     40 C14        -6.0160    1.9400   -2.6010 c         1 MOL      0.394253
     41 O6         -6.6350    1.4100   -3.5670 o         1 MOL     -0.557153
     42 C15        -3.8180    2.4720   -3.7840 c3        1 MOL     -0.127624
     43 C16        -3.0460    1.2910   -3.2710 c         1 MOL      0.758524
     44 O7         -3.3470    0.9010   -2.1130 o         1 MOL     -0.704290
     45 O8         -2.0880    0.7920   -3.9210 o         1 MOL     -0.704290
     46 H19        -4.0190    3.0240   -0.7990 hn        1 MOL      0.179839
     47 H20        -5.3590    3.8240   -3.3830 h1        1 MOL      0.087806
     48 H21        -3.1830    3.3390   -4.0020 hc        1 MOL      0.041988
     49 H22        -4.1700    2.2020   -4.7710 hc        1 MOL      0.041988
     50 N4         -6.3370    1.5900   -1.3530 n         1 MOL     -0.040854
     51 C17        -7.6530    1.0390   -1.0240 c3        1 MOL     -0.466415
     52 C18        -7.7550   -0.5230   -1.2070 c         1 MOL      0.599135
     53 O9         -8.8340   -1.1270   -1.1420 o         1 MOL     -0.599229
     54 H23        -5.7570    1.9090   -0.5860 hn        1 MOL      0.116864
     55 H24        -8.2470    1.4550   -1.8320 h1        1 MOL      0.174377
     56 H25        -7.9130    1.2520    0.0180 h1        1 MOL      0.174377
     57 N5         -6.5680   -1.1330   -1.5490 n         1 MOL     -0.254701
     58 C19        -6.4530   -2.5210   -2.0770 c3        1 MOL     -0.011764
     59 C20        -6.3180   -3.5510   -0.9880 c         1 MOL      0.286242
     60 O10        -6.3100   -4.7700   -1.2710 o         1 MOL     -0.484642
     61 C21        -5.3170   -2.5810   -3.0650 c3        1 MOL     -0.211346
     62 C22        -3.9660   -2.2330   -2.5630 c         1 MOL      0.825863
     63 O11        -3.8660   -1.8840   -1.3650 o         1 MOL     -0.725105
     64 O12        -3.0110   -2.5360   -3.3810 o         1 MOL     -0.725105
     65 H26        -5.7360   -0.5710   -1.5820 hn        1 MOL      0.164698
     66 H27        -7.4060   -2.7730   -2.5280 h1        1 MOL      0.117841
     67 H28        -5.4940   -1.8940   -3.9010 hc        1 MOL      0.063369
     68 H29        -5.3450   -3.5950   -3.4630 hc        1 MOL      0.063369
     69 N6         -6.3410   -3.1540    0.2900 n         1 MOL      0.014050
     70 C23        -6.4890   -4.0930    1.4500 c3        1 MOL     -0.266733
     71 C24        -5.2010   -4.7600    1.8640 c         1 MOL      0.610053
     72 O13        -5.2550   -5.9290    2.4190 o         1 MOL     -0.579630
     73 H30        -6.6530   -2.2020    0.4450 hn        1 MOL      0.132339
     74 H31        -7.0120   -4.9640    1.0790 h1        1 MOL      0.109472
     75 H32        -6.9980   -3.6710    2.3170 h1        1 MOL      0.109472
     76 N7         -4.0360   -4.1720    1.6690 n         1 MOL     -0.557486
     77 C25        -2.7110   -4.7810    1.6910 c3        1 MOL      0.085858
     78 C26        -1.7290   -3.6140    1.6820 c         1 MOL      0.550475
     79 O14        -1.9340   -2.5740    1.0810 o         1 MOL     -0.472384
     80 C27        -2.6340   -5.6980    0.4960 c3        1 MOL     -0.338242
     81 C28        -2.8380   -5.0860   -0.9100 c3        1 MOL      0.151011
     82 C29        -2.7250   -6.1440   -2.0240 c         1 MOL      0.548452
     83 N8         -2.9710   -5.7550   -3.2490 n         1 MOL     -0.735797
     84 O15        -2.5600   -7.3640   -1.9110 o         1 MOL     -0.600228
     85 H33        -3.9720   -3.2310    1.3220 hn        1 MOL      0.301922
     86 H34        -2.6630   -5.3890    2.5900 h1        1 MOL      0.054692
     87 H35        -3.2790   -6.5600    0.6610 hc        1 MOL      0.109692
     88 H36        -1.5950   -6.0260    0.4740 hc        1 MOL      0.109692
     89 H37        -2.1890   -4.2390   -1.1290 hc        1 MOL      0.008657
     90 H38        -3.8490   -4.6830   -0.9300 hc        1 MOL      0.008657
     91 H39        -2.9900   -4.7650   -3.4610 hn        1 MOL      0.345522
     92 H40        -2.9150   -6.4900   -3.9380 hn        1 MOL      0.345522
     93 N9         -0.5780   -3.7310    2.3520 n         1 MOL     -0.425944
     94 C30         0.4730   -2.6620    2.4220 c3        1 MOL     -0.080529
     95 C31         1.4840   -3.0360    1.4140 c         1 MOL      0.680347
     96 O16         1.8900   -4.1760    1.4460 o         1 MOL     -0.597670
     97 C32         1.0960   -2.5230    3.8730 c3        1 MOL      0.245504
     98 C33         2.4250   -1.7420    3.8920 c3        1 MOL     -0.230502
     99 C34         0.0390   -1.9010    4.8120 c3        1 MOL     -0.230502
    100 H41        -0.5150   -4.5510    2.9460 hn        1 MOL      0.257310
    101 H42         0.1070   -1.6640    2.1980 h1        1 MOL      0.171601
    102 H43         1.2440   -3.5130    4.3010 hc        1 MOL     -0.030879
    103 H44         3.1060   -2.4000    3.3510 hc        1 MOL      0.043084
    104 H45         2.2990   -0.7610    3.4460 hc        1 MOL      0.043084
    105 H46         2.7560   -1.6410    4.9270 hc        1 MOL      0.043084
    106 H47        -0.3100   -0.9280    4.4710 hc        1 MOL      0.043084
    107 H48        -0.7980   -2.5890    4.7780 hc        1 MOL      0.043084
    108 H49         0.3640   -1.8740    5.8540 hc        1 MOL      0.043084
    109 N10         2.1170   -2.1080    0.6160 n         1 MOL     -0.487677
    110 C35         3.1380   -2.4260   -0.3630 c3        1 MOL      0.061927
    111 C36         4.4900   -1.7940   -0.0630 c         1 MOL      0.662814
    112 O17         4.6710   -1.0400    0.8660 o         1 MOL     -0.497076
    113 C37         2.5510   -2.1090   -1.7690 c3        1 MOL     -0.113439
    114 C38         2.6340   -0.6610   -2.2350 c         1 MOL      0.412018
    115 N11         1.5250   -0.0630   -2.2230 n         1 MOL     -0.453201
    116 O18         3.6570   -0.1100   -2.7090 o         1 MOL     -0.533813
    117 H50         1.8340   -1.1370    0.6200 hn        1 MOL      0.271102
    118 H51         3.2600   -3.5120   -0.4260 h1        1 MOL      0.054549
    119 H52         1.5090   -2.4010   -1.9050 hc        1 MOL      0.059359
    120 H53         3.0690   -2.7520   -2.4810 hc        1 MOL      0.059359
    121 H54         0.6940   -0.4930   -1.8380 hn        1 MOL      0.307000
    122 H55         1.4110    0.7080   -2.8730 hn        1 MOL      0.307000
    123 N12         5.5330   -2.1360   -0.8630 n         1 MOL     -0.814561
    124 C39         6.8680   -1.5090   -0.6880 c3        1 MOL      0.279956
    125 C40         6.9540   -0.0020   -0.7720 c         1 MOL      0.635953
    126 O19         7.9330    0.4840   -0.2100 o         1 MOL     -0.518225
    127 C41         7.7730   -2.2940   -1.7000 c3        1 MOL      0.000523
    128 C42         9.2060   -2.2120   -1.2540 ca        1 MOL      0.084649
    129 C43         9.6060   -3.0830   -0.1490 ca        1 MOL     -0.304514
    130 C44        10.1350   -1.3120   -1.8080 ca        1 MOL     -0.304514
    131 C45        10.9540   -3.0930    0.2890 ca        1 MOL     -0.047384
    132 C46        11.4000   -1.1660   -1.1560 ca        1 MOL     -0.047384
    133 C47        11.8100   -2.1320   -0.1920 ca        1 MOL      0.100492
    134 O20        13.0290   -1.8960    0.3640 oh        1 MOL     -0.528315
    135 H56         5.5210   -3.0750   -1.2450 hn        1 MOL      0.365523
    136 H57         7.1860   -1.7700    0.3270 h1        1 MOL     -0.012520
    137 H58         7.6510   -1.7760   -2.6530 hc        1 MOL      0.012788
    138 H59         7.5030   -3.3430   -1.8240 hc        1 MOL      0.012788
    139 H60         8.8920   -3.7650    0.2750 ha        1 MOL      0.169230
    140 H61         9.8230   -0.6650   -2.6200 ha        1 MOL      0.169230
    141 H62        11.2630   -3.8780    0.9710 ha        1 MOL      0.087856
    142 H63        12.0760   -0.3970   -1.4980 ha        1 MOL      0.087856
    143 H64        13.4430   -1.1860   -0.1340 ho        1 MOL      0.396192
    144 N13         5.9480    0.7370   -1.2160 n         1 MOL     -0.437534
    145 C48         5.8520    2.2220   -1.0920 c3        1 MOL      0.004428
    146 C49         4.8520    2.7460   -0.0160 c         1 MOL      0.406218
    147 O21         4.7170    3.8890    0.2140 o         1 MOL     -0.557144
    148 C50         5.6010    2.9140   -2.4290 c3        1 MOL      0.212570
    149 C51         6.3740    2.4140   -3.6310 c3        1 MOL     -0.261282
    150 C52         7.8550    2.3590   -3.3180 c         1 MOL      0.641990
    151 O22         8.4850    3.4380   -3.1630 o         1 MOL     -0.684575
    152 O23         8.4640    1.2210   -3.2790 o         1 MOL     -0.684575
    153 H65         5.1620    0.3020   -1.6750 hn        1 MOL      0.229636
    154 H66         6.8140    2.6570   -0.7820 h1        1 MOL      0.087606
    155 H67         5.7760    3.9880   -2.3860 hc        1 MOL     -0.043969
    156 H68         4.5320    2.8280   -2.6350 hc        1 MOL     -0.043969
    157 H69         6.1540    3.0660   -4.4820 hc        1 MOL      0.038263
    158 H70         6.1030    1.3740   -3.7500 hc        1 MOL      0.038263
    159 N14         4.2230    1.9040    0.8160 n         1 MOL     -0.029047
    160 C53         3.3710    2.1210    1.9990 c3        1 MOL     -0.169726
    161 C54         4.0340    1.6760    3.2860 c         1 MOL      0.339606
    162 O24         3.4730    1.8080    4.3890 o         1 MOL     -0.538784
    163 C55         1.9790    1.5720    1.8930 c3        1 MOL      0.058602
    164 C56         1.1960    2.1600    0.6810 c3        1 MOL     -0.022150
    165 C57        -0.1400    1.3780    0.4920 c         1 MOL      0.811109
    166 O25        -1.2170    1.9820    0.3570 o         1 MOL     -0.826629
    167 O26        -0.1060    0.1530    0.5900 o         1 MOL     -0.826629
    168 H71         4.3680    0.9270    0.6040 hn        1 MOL      0.113804
    169 H72         3.2080    3.1970    2.1290 h1        1 MOL      0.114144
    170 H73         1.3540    1.7940    2.7660 hc        1 MOL      0.055020
    171 H74         2.1200    0.4990    1.8130 hc        1 MOL      0.055020
    172 H75         1.8360    2.0230   -0.1930 hc        1 MOL     -0.014754
    173 H76         0.9970    3.2100    0.8680 hc        1 MOL     -0.014754
    174 N15         5.2050    1.0770    3.2350 n         1 MOL     -0.064642
    175 C58         5.8670    0.3770    4.3750 c3        1 MOL     -0.185094
    176 H77         5.1490   -0.2820    4.8620 h1        1 MOL      0.084498
    177 H78         6.7050   -0.2120    4.0020 h1        1 MOL      0.084498
    178 H79         6.2290    1.1130    5.0920 h1        1 MOL      0.084498
    179 H80         5.6860    1.0790    2.3450 hn        1 MOL      0.095847
    180 Ca1        -2.7090   -0.0990    0.1410 Ca        1 MOL      1.751902
    181 O27        -2.2360    0.0940    2.7330 oh        1 MOL     -0.927412
    182 H81        -1.5300    0.7080    2.9420 ho        1 MOL      0.441839
    183 H82        -2.7100    0.0000    3.5620 ho        1 MOL      0.441839
    184 O28        -1.1090   -0.9790   -1.9100 oh        1 MOL     -0.927412
    185 H83        -1.8100   -1.6260   -2.0350 ho        1 MOL      0.441839
    186 H84        -1.2980   -0.2950   -2.5540 ho        1 MOL      0.441839
    187 O29        -4.4880   -1.1080    1.6940 oh        1 MOL     -0.927412
    188 H85        -5.4360   -1.0370    1.5840 ho        1 MOL      0.441839
    189 H86        -4.3520   -1.1550    2.6340 ho        1 MOL      0.441839
@<TRIPOS>BOND
     1    1    2 1   
     2    1    4 1   
     3    1    5 1   
     4    1    6 1   
     5    2    3 2   
     6    2    7 1   
     7    7    8 1   
     8    7   15 1   
     9    8    9 1   
    10    8   11 1   
    11    8   16 1   
    12    9   10 2   
    13    9   19 1   
    14   11   12 1   
    15   11   17 1   
    16   11   18 1   
    17   12   13 1   
    18   12   14 1   
    19   19   20 1   
    20   19   27 1   
    21   20   21 1   
    22   20   23 1   
    23   20   28 1   
    24   21   22 2   
    25   21   38 1   
    26   23   24 1   
    27   23   25 1   
    28   23   29 1   
    29   24   26 1   
    30   24   30 1   
    31   24   31 1   
    32   25   32 1   
    33   25   33 1   
    34   25   34 1   
    35   26   35 1   
    36   26   36 1   
    37   26   37 1   
    38   38   39 1   
    39   38   46 1   
    40   39   40 1   
    41   39   42 1   
    42   39   47 1   
    43   40   41 2   
    44   40   50 1   
    45   42   43 1   
    46   42   48 1   
    47   42   49 1   
    48   43   44 1   
    49   43   45 1   
    50   50   51 1   
    51   50   54 1   
    52   51   52 1   
    53   51   55 1   
    54   51   56 1   
    55   52   53 2   
    56   52   57 1   
    57   57   58 1   
    58   57   65 1   
    59   58   59 1   
    60   58   61 1   
    61   58   66 1   
    62   59   60 2   
    63   59   69 1   
    64   61   62 1   
    65   61   67 1   
    66   61   68 1   
    67   62   63 1   
    68   62   64 1   
    69   69   70 1   
    70   69   73 1   
    71   70   71 1   
    72   70   74 1   
    73   70   75 1   
    74   71   72 2   
    75   71   76 1   
    76   76   77 1   
    77   76   85 1   
    78   77   78 1   
    79   77   80 1   
    80   77   86 1   
    81   78   79 2   
    82   78   93 1   
    83   80   81 1   
    84   80   87 1   
    85   80   88 1   
    86   81   82 1   
    87   81   89 1   
    88   81   90 1   
    89   82   83 1   
    90   82   84 2   
    91   83   91 1   
    92   83   92 1   
    93   93   94 1   
    94   93  100 1   
    95   94   95 1   
    96   94   97 1   
    97   94  101 1   
    98   95   96 2   
    99   95  109 1   
   100   97   98 1   
   101   97   99 1   
   102   97  102 1   
   103   98  103 1   
   104   98  104 1   
   105   98  105 1   
   106   99  106 1   
   107   99  107 1   
   108   99  108 1   
   109  109  110 1   
   110  109  117 1   
   111  110  111 1   
   112  110  113 1   
   113  110  118 1   
   114  111  112 2   
   115  111  123 1   
   116  113  114 1   
   117  113  119 1   
   118  113  120 1   
   119  114  115 1   
   120  114  116 2   
   121  115  121 1   
   122  115  122 1   
   123  123  124 1   
   124  123  135 1   
   125  124  125 1   
   126  124  127 1   
   127  124  136 1   
   128  125  126 2   
   129  125  144 1   
   130  127  128 1   
   131  127  137 1   
   132  127  138 1   
   133  128  129 ar  
   134  128  130 ar  
   135  129  131 ar  
   136  129  139 1   
   137  130  132 ar  
   138  130  140 1   
   139  131  133 ar  
   140  131  141 1   
   141  132  133 ar  
   142  132  142 1   
   143  133  134 1   
   144  134  143 1   
   145  144  145 1   
   146  144  153 1   
   147  145  146 1   
   148  145  148 1   
   149  145  154 1   
   150  146  147 2   
   151  146  159 1   
   152  148  149 1   
   153  148  155 1   
   154  148  156 1   
   155  149  150 1   
   156  149  157 1   
   157  149  158 1   
   158  150  151 1   
   159  150  152 1   
   160  159  160 1   
   161  159  168 1   
   162  160  161 1   
   163  160  163 1   
   164  160  169 1   
   165  161  162 2   
   166  161  174 1   
   167  163  164 1   
   168  163  170 1   
   169  163  171 1   
   170  164  165 1   
   171  164  172 1   
   172  164  173 1   
   173  165  166 1   
   174  165  167 1   
   175  174  175 1   
   176  174  179 1   
   177  175  176 1   
   178  175  177 1   
   179  175  178 1   
   180  181  182 1   
   181  181  183 1   
   182  184  185 1   
   183  184  186 1   
   184  187  188 1   
   185  187  189 1   
@<TRIPOS>SUBSTRUCTURE
     1 MOL         1 TEMP              0 ****  ****    0 ROOT
