@<TRIPOS>MOLECULE
MOL
  189   185     1     0     0
SMALL
resp


@<TRIPOS>ATOM
      1 C1         -0.9020    3.8120    5.5470 c3        1 MOL     -0.261289
      2 C2         -1.0110    3.1120    4.1540 c         1 MOL      0.711666
      3 O1         -0.0610    3.2380    3.3500 o         1 MOL     -0.634983
      4 H1         -0.1800    4.6250    5.4890 hc        1 MOL      0.055101
      5 H2         -1.8760    4.2110    5.8310 hc        1 MOL      0.055101
      6 H3         -0.5740    3.0880    6.2930 hc        1 MOL      0.055101
      7 N1         -2.0800    2.4260    3.9090 n         1 MOL     -0.560869
      8 C3         -2.5360    2.1190    2.5750 c3        1 MOL      0.078434
      9 C4         -2.9580    3.3670    1.7280 c         1 MOL      0.559777
     10 O2         -3.6540    4.2410    2.2420 o         1 MOL     -0.595522
     11 C5         -3.7390    1.0750    2.6410 c3        1 MOL     -0.181741
     12 C6         -4.0460    0.4450    1.3180 c         1 MOL      0.718866
     13 O3         -5.1650   -0.1830    1.2760 o         1 MOL     -0.664710
     14 O4         -3.2540    0.5560    0.3410 o         1 MOL     -0.664710
     15 H4         -2.6900    2.3540    4.7070 hn        1 MOL      0.319874
     16 H5         -1.6820    1.6870    2.0480 h1        1 MOL      0.053476
     17 H6         -4.6320    1.4730    3.1200 hc        1 MOL      0.055429
     18 H7         -3.2980    0.2860    3.2560 hc        1 MOL      0.055429
     19 N2         -2.5090    3.5080    0.4670 n         1 MOL     -0.354624
     20 C7         -2.5680    4.7590   -0.3780 c3        1 MOL      0.091637
     21 C8         -3.3520    4.6560   -1.6110 c         1 MOL      0.454517
     22 O5         -3.5940    5.6830   -2.2520 o         1 MOL     -0.573736
     23 C9         -1.1050    5.2890   -0.4710 c3        1 MOL      0.045261
     24 C10        -0.4980    5.7010    0.8870 c3        1 MOL     -0.003786
     25 C11        -0.6380    7.1820    1.3150 c3        1 MOL     -0.140910
     26 C12        -0.6240    7.4670    2.8080 c3        1 MOL      0.245290
     27 N3         -0.9420    8.9070    3.0650 n4        1 MOL     -0.416481
     28 H8         -1.8220    2.8410    0.1310 hn        1 MOL      0.182648
     29 H9         -3.1220    5.5170    0.1760 h1        1 MOL      0.042576
     30 H10        -1.0890    6.1170   -1.1750 hc        1 MOL      0.010676
     31 H11        -0.3970    4.5540   -0.8470 hc        1 MOL      0.010676
     32 H12         0.5830    5.5570    0.8440 hc        1 MOL      0.047268
     33 H13        -0.9050    5.1660    1.7470 hc        1 MOL      0.047268
     34 H14        -1.6330    7.3820    0.9350 hc        1 MOL      0.025363
     35 H15         0.1340    7.7810    0.8220 hc        1 MOL      0.025363
     36 H16         0.3780    7.2760    3.1800 hx        1 MOL      0.039431
     37 H17        -1.3250    6.8570    3.3720 hx        1 MOL      0.039431
     38 H18        -0.1480    9.5250    3.0000 hn        1 MOL      0.326371
     39 H19        -1.6060    9.2520    2.3940 hn        1 MOL      0.326371
     40 H20        -1.3770    9.0980    3.9610 hn        1 MOL      0.326371
     41 N4         -3.7340    3.4430   -2.0110 n         1 MOL     -0.315327
     42 C13        -4.5060    3.1970   -3.2810 c3        1 MOL      0.022474
     43 C14        -5.7120    2.1840   -3.0700 c         1 MOL      0.515591
     44 O6         -6.2410    1.7420   -4.0610 o         1 MOL     -0.451007
     45 C15        -3.4600    2.7390   -4.3570 c3        1 MOL     -0.176823
     46 C16        -2.4540    1.5410   -3.9420 c         1 MOL      0.698331
     47 O7         -2.1500    1.2550   -2.7600 o         1 MOL     -0.651140
     48 O8         -1.9590    0.8680   -4.8690 o         1 MOL     -0.651140
     49 H21        -3.3020    2.6970   -1.4880 hn        1 MOL      0.191886
     50 H22        -4.9000    4.1670   -3.6030 h1        1 MOL      0.086641
     51 H23        -2.8890    3.6470   -4.5190 hc        1 MOL      0.049748
     52 H24        -4.0210    2.4360   -5.2340 hc        1 MOL      0.049748
     53 N5         -6.1160    2.0400   -1.8120 n         1 MOL     -0.461998
     54 C17        -7.4030    1.4130   -1.4650 c3        1 MOL      0.033238
     55 C18        -7.5030   -0.0270   -1.9780 c         1 MOL      0.270191
     56 O9         -8.4180   -0.3020   -2.7900 o         1 MOL     -0.506195
     57 H25        -5.5380    2.3780   -1.0530 hn        1 MOL      0.268410
     58 H26        -8.3280    1.9120   -1.7660 h1        1 MOL      0.069405
     59 H27        -7.4860    1.4130   -0.3830 h1        1 MOL      0.069405
     60 N6         -6.5890   -0.9290   -1.6090 n         1 MOL      0.009535
     61 C19        -6.5630   -2.3580   -1.9800 c3        1 MOL     -0.047849
     62 C20        -6.8110   -3.2610   -0.7460 c         1 MOL      0.456996
     63 O10        -7.2270   -4.4060   -0.8270 o         1 MOL     -0.509663
     64 C21        -5.3080   -2.6990   -2.7930 c3        1 MOL     -0.123000
     65 C22        -4.0220   -2.0310   -2.2670 c         1 MOL      0.577084
     66 O11        -3.6330   -2.3830   -1.1060 o         1 MOL     -0.641786
     67 O12        -3.2580   -1.3880   -3.0020 o         1 MOL     -0.641786
     68 H28        -5.7860   -0.5760   -1.1090 hn        1 MOL      0.104002
     69 H29        -7.4610   -2.4830   -2.5960 h1        1 MOL      0.080863
     70 H30        -5.4100   -2.3250   -3.8160 hc        1 MOL      0.063491
     71 H31        -5.1320   -3.7650   -2.8670 hc        1 MOL      0.063491
     72 N7         -6.5340   -2.6600    0.4430 n         1 MOL     -0.355935
     73 C23        -6.4990   -3.4140    1.6910 c3        1 MOL      0.125944
     74 C24        -5.2650   -4.2470    2.0590 c         1 MOL      0.425505
     75 O13        -5.3970   -5.2750    2.7890 o         1 MOL     -0.555153
     76 H32        -6.2650   -1.7000    0.5830 hn        1 MOL      0.193115
     77 H33        -7.3170   -4.1240    1.7890 h1        1 MOL      0.021816
     78 H34        -6.5930   -2.7470    2.5540 h1        1 MOL      0.021816
     79 N8         -4.1390   -3.7930    1.5450 n         1 MOL     -0.203528
     80 C25        -2.7440   -4.3520    1.6860 c3        1 MOL     -0.093775
     81 C26        -1.6760   -3.2800    1.6930 c         1 MOL      0.526931
     82 O14        -1.8380   -2.1200    1.2040 o         1 MOL     -0.565787
     83 C27        -2.2940   -5.3060    0.5720 c3        1 MOL      0.533744
     84 C28        -3.1650   -6.5190    0.7830 c3        1 MOL     -0.617954
     85 O15        -2.5070   -4.8800   -0.7300 oh        1 MOL     -0.606128
     86 H35        -4.2190   -2.9730    0.9640 hn        1 MOL      0.181737
     87 H36        -2.5640   -4.9140    2.5960 h1        1 MOL      0.078072
     88 H37        -1.2670   -5.5970    0.7950 h1        1 MOL     -0.003893
     89 H38        -3.2920   -4.3330   -0.6060 ho        1 MOL      0.376709
     90 H39        -3.2110   -6.7410    1.8540 hc        1 MOL      0.148966
     91 H40        -4.1880   -6.5670    0.4060 hc        1 MOL      0.148966
     92 H41        -2.6390   -7.3610    0.3170 hc        1 MOL      0.148966
     93 N9         -0.4770   -3.5170    2.1850 n         1 MOL     -0.548451
     94 C29         0.6830   -2.6670    2.1640 c3        1 MOL     -0.025067
     95 C30         1.7290   -3.3660    1.2990 c         1 MOL      0.496985
     96 O16         1.9590   -4.5950    1.3730 o         1 MOL     -0.558941
     97 C31         1.1850   -2.3880    3.6770 c3        1 MOL      0.103574
     98 C32         0.2620   -1.3110    4.2490 c3        1 MOL      0.092966
     99 C33         2.6370   -1.9330    3.8350 c3        1 MOL     -0.314292
    100 C34         0.5530   -0.9100    5.6590 c3        1 MOL     -0.419691
    101 H42        -0.3090   -4.3590    2.7250 hn        1 MOL      0.299454
    102 H43         0.4630   -1.7370    1.6380 h1        1 MOL     -0.023512
    103 H44         1.0250   -3.2850    4.2800 hc        1 MOL      0.032257
    104 H45        -0.7570   -1.6820    4.3370 hc        1 MOL      0.046555
    105 H46         0.2770   -0.4110    3.6420 hc        1 MOL      0.046555
    106 H47         2.7540   -0.9670    3.3420 hc        1 MOL      0.059609
    107 H48         2.8040   -1.8050    4.9020 hc        1 MOL      0.059609
    108 H49         3.3820   -2.4840    3.2740 hc        1 MOL      0.059609
    109 H50         1.5050   -0.3710    5.6300 hc        1 MOL      0.110681
    110 H51        -0.2700   -0.2580    5.9520 hc        1 MOL      0.110681
    111 H52         0.6550   -1.8000    6.2860 hc        1 MOL      0.110681
    112 N10         2.3110   -2.5670    0.4020 n         1 MOL     -0.032586
    113 C35         3.3200   -3.0170   -0.5700 c3        1 MOL     -0.077245
    114 C36         4.7460   -2.6290    0.0110 c         1 MOL      0.212370
    115 O17         4.8810   -1.8140    0.9400 o         1 MOL     -0.262715
    116 C37         3.3430   -2.3630   -1.9650 c3        1 MOL      0.382529
    117 C38         2.3900   -2.9580   -2.9800 c3        1 MOL     -0.408587
    118 O18         3.0490   -0.9740   -1.8000 oh        1 MOL     -0.570805
    119 H53         2.1360   -1.5740    0.4640 hn        1 MOL      0.170903
    120 H54         3.4260   -4.1000   -0.5960 h1        1 MOL      0.066224
    121 H55         4.3410   -2.4890   -2.3810 h1        1 MOL     -0.021471
    122 H56         2.3550   -0.8880   -1.1440 ho        1 MOL      0.322479
    123 H57         2.6640   -3.9980   -3.1290 hc        1 MOL      0.104904
    124 H58         1.3910   -2.8780   -2.5580 hc        1 MOL      0.104904
    125 H59         2.4680   -2.4510   -3.9440 hc        1 MOL      0.104904
    126 N11         5.8740   -3.1040   -0.5430 n         1 MOL     -0.217258
    127 C39         7.1930   -2.5780   -0.0590 c3        1 MOL     -0.265315
    128 C40         7.4270   -1.0870   -0.1870 c         1 MOL      0.299919
    129 O19         8.4270   -0.6350    0.4070 o         1 MOL     -0.477011
    130 C41         8.4000   -3.2460   -0.7170 c3        1 MOL      0.450976
    131 C42         8.4560   -4.7430   -0.5330 c3        1 MOL     -0.286707
    132 O20         8.4720   -3.0540   -2.0390 oh        1 MOL     -0.629394
    133 H60         5.8170   -3.8030   -1.2680 hn        1 MOL      0.277731
    134 H61         7.3100   -2.7000    1.0160 h1        1 MOL      0.170457
    135 H62         9.2950   -2.8750   -0.2200 h1        1 MOL      0.000868
    136 H63         9.1210   -2.3590   -2.1820 ho        1 MOL      0.404356
    137 H64         7.5710   -5.2080   -0.9600 hc        1 MOL      0.072790
    138 H65         9.4010   -5.1600   -0.8920 hc        1 MOL      0.072790
    139 H66         8.2970   -5.0310    0.5030 hc        1 MOL      0.072790
    140 N12         6.5620   -0.2860   -0.8750 n         1 MOL     -0.192624
    141 C43         6.6090    1.1790   -1.0120 c3        1 MOL     -0.023392
    142 C44         5.9720    2.0150    0.1060 c         1 MOL      0.342585
    143 O21         6.4290    3.1150    0.5180 o         1 MOL     -0.515685
    144 C45         5.9320    1.5600   -2.2890 c3        1 MOL     -0.254817
    145 C46         6.6450    1.4410   -3.6690 c3        1 MOL      0.063927
    146 C47         7.7980    2.4750   -3.9370 c3        1 MOL     -0.089658
    147 C48         8.7560    2.0180   -5.0470 c3        1 MOL      0.058931
    148 N13         9.9560    2.8770   -5.1740 n4        1 MOL     -0.237022
    149 H67         5.8930   -0.7370   -1.4820 hn        1 MOL      0.226936
    150 H68         7.6800    1.3920   -1.0600 h1        1 MOL      0.086246
    151 H69         5.5530    2.5880   -2.3020 hc        1 MOL      0.120959
    152 H70         4.9960    1.0130   -2.3930 hc        1 MOL      0.120959
    153 H71         5.8950    1.5690   -4.4590 hc        1 MOL      0.025941
    154 H72         7.0560    0.4400   -3.7710 hc        1 MOL      0.025941
    155 H73         8.2720    2.7030   -2.9840 hc        1 MOL      0.053657
    156 H74         7.3570    3.4030   -4.2850 hc        1 MOL      0.053657
    157 H75         8.1900    2.0580   -5.9780 hx        1 MOL      0.064058
    158 H76         9.0240    0.9860   -4.8400 hx        1 MOL      0.064058
    159 H77        10.5000    2.6400   -5.9850 hn        1 MOL      0.276279
    160 H78         9.7020    3.8490   -5.0650 hn        1 MOL      0.276279
    161 H79        10.6210    2.6940   -4.4330 hn        1 MOL      0.276279
    162 N14         4.9350    1.3690    0.5870 n         1 MOL     -0.041571
    163 C49         4.1390    1.8120    1.7250 c3        1 MOL     -0.151667
    164 C50         4.7240    1.2740    3.0740 c         1 MOL      0.436471
    165 O22         4.5860    1.8910    4.1400 o         1 MOL     -0.538537
    166 C51         2.7280    1.1960    1.5830 c3        1 MOL      0.046743
    167 C52         1.9030    1.9640    0.4870 c3        1 MOL     -0.020454
    168 C53         0.6680    1.1370    0.0500 c         1 MOL      0.623780
    169 O23         0.7620   -0.1050   -0.1920 o         1 MOL     -0.611147
    170 O24        -0.4590    1.6430   -0.1590 o         1 MOL     -0.611147
    171 H80         4.7770    0.4570    0.1840 hn        1 MOL      0.038998
    172 H81         4.0970    2.8980    1.7830 h1        1 MOL      0.118286
    173 H82         2.1960    1.2630    2.5250 hc        1 MOL      0.054539
    174 H83         2.7780    0.1180    1.4030 hc        1 MOL      0.054539
    175 H84         2.5250    2.1070   -0.3910 hc        1 MOL     -0.007781
    176 H85         1.5520    2.9270    0.8560 hc        1 MOL     -0.007781
    177 N15         5.2970    0.0650    3.0680 n         1 MOL     -0.100917
    178 C54         5.8740   -0.6680    4.1640 c3        1 MOL     -0.209822
    179 H86         6.8130   -0.2000    4.4590 h1        1 MOL      0.086202
    180 H87         5.1860   -0.6620    5.0080 h1        1 MOL      0.086202
    181 H88         6.0630   -1.6970    3.8550 h1        1 MOL      0.086202
    182 H89         5.2040   -0.4380    2.2000 hn        1 MOL      0.147428
    183 Ca1        -1.6240   -0.6560   -1.1100 Ca        1 MOL      1.626026
    184 O25        -0.4950   -3.2020   -1.1780 oh        1 MOL     -0.814453
    185 H90        -1.3030   -3.6920   -1.3450 ho        1 MOL      0.383600
    186 H91         0.1990   -3.7890   -1.4740 ho        1 MOL      0.383600
    187 O26        -0.0740   -0.7380   -3.3180 oh        1 MOL     -0.814453
    188 H92        -0.3220   -1.5770   -3.6940 ho        1 MOL      0.383600
    189 H93        -0.5100   -0.0780   -3.8730 ho        1 MOL      0.383600
@<TRIPOS>BOND
     1    1    2 1   
     2    1    4 1   
     3    1    5 1   
     4    1    6 1   
     5    2    3 2   
     6    2    7 1   
     7    7    8 1   
     8    7   15 1   
     9    8    9 1   
    10    8   11 1   
    11    8   16 1   
    12    9   10 2   
    13    9   19 1   
    14   11   12 1   
    15   11   17 1   
    16   11   18 1   
    17   12   13 1   
    18   12   14 1   
    19   19   20 1   
    20   19   28 1   
    21   20   21 1   
    22   20   23 1   
    23   20   29 1   
    24   21   22 2   
    25   21   41 1   
    26   23   24 1   
    27   23   30 1   
    28   23   31 1   
    29   24   25 1   
    30   24   32 1   
    31   24   33 1   
    32   25   26 1   
    33   25   34 1   
    34   25   35 1   
    35   26   27 1   
    36   26   36 1   
    37   26   37 1   
    38   27   38 1   
    39   27   39 1   
    40   27   40 1   
    41   41   42 1   
    42   41   49 1   
    43   42   43 1   
    44   42   45 1   
    45   42   50 1   
    46   43   44 2   
    47   43   53 1   
    48   45   46 1   
    49   45   51 1   
    50   45   52 1   
    51   46   47 1   
    52   46   48 1   
    53   53   54 1   
    54   53   57 1   
    55   54   55 1   
    56   54   58 1   
    57   54   59 1   
    58   55   56 2   
    59   55   60 1   
    60   60   61 1   
    61   60   68 1   
    62   61   62 1   
    63   61   64 1   
    64   61   69 1   
    65   62   63 2   
    66   62   72 1   
    67   64   65 1   
    68   64   70 1   
    69   64   71 1   
    70   65   66 1   
    71   65   67 1   
    72   72   73 1   
    73   72   76 1   
    74   73   74 1   
    75   73   77 1   
    76   73   78 1   
    77   74   75 2   
    78   74   79 1   
    79   79   80 1   
    80   79   86 1   
    81   80   81 1   
    82   80   83 1   
    83   80   87 1   
    84   81   82 2   
    85   81   93 1   
    86   83   84 1   
    87   83   85 1   
    88   83   88 1   
    89   84   90 1   
    90   84   91 1   
    91   84   92 1   
    92   85   89 1   
    93   93   94 1   
    94   93  101 1   
    95   94   95 1   
    96   94   97 1   
    97   94  102 1   
    98   95   96 2   
    99   95  112 1   
   100   97   98 1   
   101   97   99 1   
   102   97  103 1   
   103   98  100 1   
   104   98  104 1   
   105   98  105 1   
   106   99  106 1   
   107   99  107 1   
   108   99  108 1   
   109  100  109 1   
   110  100  110 1   
   111  100  111 1   
   112  112  113 1   
   113  112  119 1   
   114  113  114 1   
   115  113  116 1   
   116  113  120 1   
   117  114  115 2   
   118  114  126 1   
   119  116  117 1   
   120  116  118 1   
   121  116  121 1   
   122  117  123 1   
   123  117  124 1   
   124  117  125 1   
   125  118  122 1   
   126  126  127 1   
   127  126  133 1   
   128  127  128 1   
   129  127  130 1   
   130  127  134 1   
   131  128  129 2   
   132  128  140 1   
   133  130  131 1   
   134  130  132 1   
   135  130  135 1   
   136  131  137 1   
   137  131  138 1   
   138  131  139 1   
   139  132  136 1   
   140  140  141 1   
   141  140  149 1   
   142  141  142 1   
   143  141  144 1   
   144  141  150 1   
   145  142  143 2   
   146  142  162 1   
   147  144  145 1   
   148  144  151 1   
   149  144  152 1   
   150  145  146 1   
   151  145  153 1   
   152  145  154 1   
   153  146  147 1   
   154  146  155 1   
   155  146  156 1   
   156  147  148 1   
   157  147  157 1   
   158  147  158 1   
   159  148  159 1   
   160  148  160 1   
   161  148  161 1   
   162  162  163 1   
   163  162  171 1   
   164  163  164 1   
   165  163  166 1   
   166  163  172 1   
   167  164  165 2   
   168  164  177 1   
   169  166  167 1   
   170  166  173 1   
   171  166  174 1   
   172  167  168 1   
   173  167  175 1   
   174  167  176 1   
   175  168  169 1   
   176  168  170 1   
   177  177  178 1   
   178  177  182 1   
   179  178  179 1   
   180  178  180 1   
   181  178  181 1   
   182  184  185 1   
   183  184  186 1   
   184  187  188 1   
   185  187  189 1   
@<TRIPOS>SUBSTRUCTURE
     1 MOL         1 TEMP              0 ****  ****    0 ROOT
