@<TRIPOS>MOLECULE
MOL
  186   183     1     0     0
SMALL
resp


@<TRIPOS>ATOM
      1 C1         -0.3100    1.9320    6.2340 c3        1 MOL     -0.262725
      2 C2         -0.7050    1.9640    4.6880 c         1 MOL      0.620280
      3 O1          0.0720    2.3260    3.7880 o         1 MOL     -0.537812
      4 H1          0.1130    2.8950    6.5200 hc        1 MOL      0.062553
      5 H2         -1.2000    1.7350    6.8330 hc        1 MOL      0.062553
      6 H3          0.4260    1.1470    6.4050 hc        1 MOL      0.062553
      7 N1         -1.9380    1.5660    4.3920 n         1 MOL     -0.522949
      8 C3         -2.6620    1.6690    3.1150 c3        1 MOL      0.244195
      9 C4         -2.9760    3.1380    2.6060 c         1 MOL      0.424278
     10 O2         -4.0180    3.7600    3.0090 o         1 MOL     -0.564471
     11 C5         -3.8430    0.6860    3.1240 c3        1 MOL     -0.349808
     12 C6         -4.5410    0.5340    1.7530 c         1 MOL      0.799805
     13 O3         -5.5410   -0.2020    1.6580 o         1 MOL     -0.661512
     14 O4         -3.9110    1.0460    0.7280 o         1 MOL     -0.661512
     15 H4         -2.4250    1.1020    5.1480 hn        1 MOL      0.298315
     16 H5         -1.9450    1.3280    2.3670 h1        1 MOL     -0.073694
     17 H6         -4.5030    1.0280    3.9280 hc        1 MOL      0.072449
     18 H7         -3.5360   -0.3060    3.4480 hc        1 MOL      0.072449
     19 N2         -2.2050    3.7620    1.6740 n         1 MOL     -0.182659
     20 C7         -2.3310    5.1310    1.2020 c3        1 MOL     -0.238451
     21 C8         -3.4010    5.3400    0.1060 c         1 MOL      0.598562
     22 O5         -4.0050    6.4590   -0.0040 o         1 MOL     -0.608129
     23 C9         -0.9030    5.5510    0.7010 c3        1 MOL      0.359064
     24 C10         0.0450    5.6710    1.9010 c3        1 MOL      0.059864
     25 C11        -0.8770    6.9180    0.0190 c3        1 MOL     -0.522622
     26 C12         1.5170    5.9550    1.5710 c3        1 MOL     -0.082604
     27 H8         -1.4310    3.2480    1.2760 hn        1 MOL      0.198580
     28 H9         -2.5990    5.7350    2.0680 h1        1 MOL      0.102204
     29 H10        -0.5680    4.9020   -0.1000 hc        1 MOL     -0.005876
     30 H11         0.0240    4.7520    2.4940 hc        1 MOL     -0.035294
     31 H12        -0.2990    6.4500    2.5860 hc        1 MOL     -0.035294
     32 H13        -1.3730    6.9100   -0.9550 hc        1 MOL      0.113989
     33 H14        -1.4230    7.6460    0.6180 hc        1 MOL      0.113989
     34 H15         0.1090    7.2150   -0.3310 hc        1 MOL      0.113989
     35 H16         2.0580    5.8790    2.5210 hc        1 MOL      0.017904
     36 H17         1.8730    5.2200    0.8510 hc        1 MOL      0.017904
     37 H18         1.7310    6.9380    1.1550 hc        1 MOL      0.017904
     38 N3         -3.8340    4.3490   -0.6490 n         1 MOL     -0.339148
     39 C13        -4.7070    4.3710   -1.8280 c3        1 MOL      0.018762
     40 C14        -5.9310    3.4230   -1.6820 c         1 MOL      0.455583
     41 O6         -6.7060    3.3520   -2.6360 o         1 MOL     -0.537177
     42 C15        -3.9290    3.8920   -3.0800 c3        1 MOL     -0.187781
     43 C16        -2.8540    2.8180   -2.8970 c         1 MOL      0.739369
     44 O7         -3.2090    1.8240   -2.2200 o         1 MOL     -0.685156
     45 O8         -1.7400    2.9680   -3.4730 o         1 MOL     -0.685156
     46 H19        -3.4760    3.4190   -0.4910 hn        1 MOL      0.185508
     47 H20        -5.1030    5.3510   -2.0910 h1        1 MOL      0.099997
     48 H21        -3.3630    4.7720   -3.4050 hc        1 MOL      0.047422
     49 H22        -4.5800    3.5860   -3.9030 hc        1 MOL      0.047422
     50 N4         -6.1330    2.5980   -0.6270 n         1 MOL     -0.295927
     51 C17        -7.4250    2.0560   -0.2520 c3        1 MOL     -0.208526
     52 C18        -7.7950    0.7350   -0.8390 c         1 MOL      0.523710
     53 O9         -9.0220    0.4930   -0.9090 o         1 MOL     -0.635295
     54 H23        -5.3070    2.2100   -0.1820 hn        1 MOL      0.217827
     55 H24        -8.2410    2.7400   -0.4870 h1        1 MOL      0.117065
     56 H25        -7.3350    1.9810    0.8330 h1        1 MOL      0.117065
     57 N5         -6.9360   -0.1600   -1.2940 n         1 MOL     -0.067337
     58 C19        -7.2780   -1.4940   -1.8280 c3        1 MOL     -0.119230
     59 C20        -7.3160   -2.6010   -0.7590 c         1 MOL      0.563682
     60 O10        -7.7150   -3.6860   -1.1310 o         1 MOL     -0.554356
     61 C21        -6.2890   -1.9300   -2.9650 c3        1 MOL     -0.140572
     62 C22        -4.7780   -1.9710   -2.6040 c         1 MOL      0.766537
     63 O11        -4.0000   -2.2720   -3.5100 o         1 MOL     -0.702245
     64 O12        -4.3080   -1.5520   -1.5680 o         1 MOL     -0.702245
     65 H26        -5.9700   -0.0330   -1.0250 hn        1 MOL      0.044238
     66 H27        -8.2660   -1.4730   -2.2870 h1        1 MOL      0.117283
     67 H28        -6.4020   -1.1480   -3.7200 hc        1 MOL      0.042166
     68 H29        -6.5330   -2.9170   -3.3780 hc        1 MOL      0.042166
     69 N6         -7.1350   -2.2800    0.5310 n         1 MOL     -0.395461
     70 C23        -7.0980   -3.2680    1.6080 c3        1 MOL      0.127560
     71 C24        -5.8820   -4.0790    1.9030 c         1 MOL      0.436051
     72 O13        -5.9700   -5.2320    2.4050 o         1 MOL     -0.593664
     73 H30        -6.7060   -1.4010    0.7960 hn        1 MOL      0.283891
     74 H31        -7.8710   -3.9770    1.3240 h1        1 MOL      0.009442
     75 H32        -7.5050   -2.7460    2.4740 h1        1 MOL      0.009442
     76 N7         -4.7490   -3.5240    1.5020 n         1 MOL     -0.182357
     77 C25        -3.4350   -4.1870    1.5080 c3        1 MOL     -0.014441
     78 C26        -2.3090   -3.1960    1.4710 c         1 MOL      0.424689
     79 O14        -2.4270   -2.0680    1.0810 o         1 MOL     -0.509230
     80 C27        -3.2690   -4.9410    0.1410 c3        1 MOL      0.085042
     81 C28        -4.0010   -6.1670   -0.1320 c3        1 MOL     -0.315847
     82 C29        -3.8700   -6.7230   -1.5620 c         1 MOL      0.710034
     83 N8         -4.3560   -7.9850   -1.7070 n         1 MOL     -0.853222
     84 O15        -3.3480   -6.1430   -2.5210 o         1 MOL     -0.532522
     85 H33        -4.8510   -2.6430    1.0030 hn        1 MOL      0.129300
     86 H34        -3.3390   -4.8610    2.3590 h1        1 MOL      0.055044
     87 H35        -2.2220   -5.0550   -0.1250 hc        1 MOL      0.046564
     88 H36        -3.6540   -4.2630   -0.6220 hc        1 MOL      0.046564
     89 H37        -5.0730   -5.9820   -0.0330 hc        1 MOL      0.088679
     90 H38        -3.6690   -6.9610    0.5340 hc        1 MOL      0.088679
     91 H39        -4.8210   -8.4920   -0.9630 hn        1 MOL      0.355303
     92 H40        -4.2400   -8.4550   -2.5990 hn        1 MOL      0.355303
     93 N9         -1.0670   -3.6740    1.6370 n         1 MOL     -0.328313
     94 C30         0.1150   -2.8420    1.6090 c3        1 MOL      0.037748
     95 C31         1.1240   -3.4950    0.5980 c         1 MOL      0.472724
     96 O16         1.3180   -4.7040    0.4280 o         1 MOL     -0.564380
     97 C32         0.6020   -2.6830    3.0480 c3        1 MOL      0.141501
     98 C33         2.0260   -2.1200    3.2140 c3        1 MOL     -0.205447
     99 C34        -0.3710   -1.7310    3.7610 c3        1 MOL     -0.205447
    100 H41        -0.9600   -4.6350    1.9450 hn        1 MOL      0.224252
    101 H42        -0.1160   -1.8430    1.2290 h1        1 MOL      0.039682
    102 H43         0.6060   -3.6650    3.5380 hc        1 MOL     -0.017657
    103 H44         2.3250   -2.1660    4.2660 hc        1 MOL      0.046887
    104 H45         2.8010   -2.7040    2.7240 hc        1 MOL      0.046887
    105 H46         2.0760   -1.0780    2.8940 hc        1 MOL      0.046887
    106 H47        -0.5190   -0.8770    3.0930 hc        1 MOL      0.046887
    107 H48        -1.3260   -2.2270    3.9030 hc        1 MOL      0.046887
    108 H49        -0.0810   -1.5400    4.7940 hc        1 MOL      0.046887
    109 N10         1.8500   -2.5730   -0.1010 n         1 MOL     -0.174722
    110 C35         2.9220   -2.7430   -1.0760 c3        1 MOL      0.065859
    111 C36         4.2490   -2.2210   -0.5220 c         1 MOL      0.376930
    112 O17         4.1980   -1.4390    0.4520 o         1 MOL     -0.330528
    113 C37         2.4960   -2.1650   -2.4540 c3        1 MOL     -0.197909
    114 C38         2.9370   -0.7500   -2.6640 c         1 MOL      0.555921
    115 N11         2.0670    0.1320   -2.2740 n         1 MOL     -0.630631
    116 O18         3.8980   -0.3550   -3.2160 o         1 MOL     -0.580480
    117 H50         1.6040   -1.6020    0.0590 hn        1 MOL      0.107163
    118 H51         2.9820   -3.8180   -1.2830 h1        1 MOL      0.052427
    119 H52         1.4150   -2.3040   -2.5300 hc        1 MOL      0.084313
    120 H53         2.9290   -2.7900   -3.2370 hc        1 MOL      0.084313
    121 H54         1.2740   -0.0920   -1.6900 hn        1 MOL      0.345641
    122 H55         2.3560    1.0970   -2.3810 hn        1 MOL      0.345641
    123 N12         5.3740   -2.4530   -1.2260 n         1 MOL     -0.579136
    124 C39         6.7030   -2.0510   -0.8050 c3        1 MOL      0.233741
    125 C40         6.9200   -0.5320   -0.5720 c         1 MOL      0.501813
    126 O19         7.5580   -0.1750    0.3910 o         1 MOL     -0.500863
    127 C41         7.8250   -2.7810   -1.4470 c3        1 MOL     -0.241709
    128 C42         9.1680   -2.6520   -0.7580 ca        1 MOL      0.014077
    129 C43         9.4580   -3.3500    0.4280 ca        1 MOL     -0.104680
    130 C44        10.1680   -1.9490   -1.4100 ca        1 MOL     -0.104680
    131 C45        10.7350   -3.2630    1.0180 ca        1 MOL     -0.271858
    132 C46        11.4940   -2.0530   -0.9840 ca        1 MOL     -0.271858
    133 C47        11.8070   -2.6340    0.2540 ca        1 MOL      0.340959
    134 O20        13.0920   -2.7080    0.6970 oh        1 MOL     -0.507011
    135 H56         5.3670   -2.9280   -2.1100 hn        1 MOL      0.329783
    136 H57         6.6910   -2.3870    0.2360 h1        1 MOL      0.082929
    137 H58         7.8000   -2.4800   -2.4850 hc        1 MOL      0.076573
    138 H59         7.5930   -3.8330   -1.6310 hc        1 MOL      0.076573
    139 H60         8.6350   -3.7770    0.9820 ha        1 MOL      0.118833
    140 H61         9.8960   -1.4370   -2.3220 ha        1 MOL      0.118833
    141 H62        10.9410   -3.7140    1.9780 ha        1 MOL      0.142568
    142 H63        12.2760   -1.6040   -1.5780 ha        1 MOL      0.142568
    143 H64        13.7000   -2.1550    0.2030 ho        1 MOL      0.363906
    144 N13         6.3190    0.3080   -1.4110 n         1 MOL     -0.342876
    145 C48         6.3700    1.7130   -1.3090 c3        1 MOL      0.031454
    146 C49         5.6960    2.1740   -0.0660 c         1 MOL      0.366381
    147 O21         6.1240    3.1680    0.5240 o         1 MOL     -0.539568
    148 C50         5.6350    2.3290   -2.5150 c3        1 MOL      0.082838
    149 C51         6.1230    3.7730   -2.7640 c3        1 MOL     -0.229182
    150 C52         5.3370    4.4250   -3.9050 c         1 MOL      0.734904
    151 O22         4.8280    5.5450   -3.6700 o         1 MOL     -0.745152
    152 O23         5.2340    3.7690   -4.9610 o         1 MOL     -0.745152
    153 H65         5.9500   -0.0500   -2.2800 hn        1 MOL      0.238834
    154 H66         7.3950    2.0590   -1.2130 h1        1 MOL      0.050155
    155 H67         4.5580    2.4240   -2.3590 hc        1 MOL      0.021241
    156 H68         5.8470    1.7190   -3.3880 hc        1 MOL      0.021241
    157 H69         7.1540    3.7400   -3.1040 hc        1 MOL      0.012842
    158 H70         5.9300    4.3940   -1.8960 hc        1 MOL      0.012842
    159 N14         4.6850    1.4780    0.4280 n         1 MOL      0.081066
    160 C53         3.9590    1.9050    1.6580 c3        1 MOL     -0.205627
    161 C54         4.6910    1.3550    2.8630 c         1 MOL      0.554831
    162 O24         4.7950    2.0260    3.8630 o         1 MOL     -0.584112
    163 C55         2.4930    1.4060    1.5790 c3        1 MOL      0.195606
    164 C56         1.6210    2.0210    0.4570 c3        1 MOL      0.160147
    165 C57         0.3220    1.3000    0.2430 c         1 MOL      0.736034
    166 O25        -0.8260    1.8680    0.2650 o         1 MOL     -0.712337
    167 O26         0.2260    0.0770   -0.0940 o         1 MOL     -0.712337
    168 H71         4.5840    0.5410    0.0580 hn        1 MOL     -0.086026
    169 H72         3.9900    2.9950    1.7400 h1        1 MOL      0.106012
    170 H73         2.0030    1.5400    2.5400 hc        1 MOL     -0.033850
    171 H74         2.6260    0.3310    1.4430 hc        1 MOL     -0.033850
    172 H75         2.1320    2.0620   -0.4970 hc        1 MOL     -0.057200
    173 H76         1.3900    3.0460    0.7670 hc        1 MOL     -0.057200
    174 N15         5.3130    0.2010    2.7470 n         1 MOL     -0.112497
    175 C58         6.1810   -0.5050    3.7560 c3        1 MOL     -0.313973
    176 H77         7.2150   -0.1860    3.6310 h1        1 MOL      0.114121
    177 H78         5.8430   -0.2580    4.7630 h1        1 MOL      0.114121
    178 H79         6.1120   -1.5820    3.6050 h1        1 MOL      0.114121
    179 H80         5.3210   -0.1290    1.7920 hn        1 MOL      0.057310
    180 Ca1        -2.2780   -0.0740   -0.8740 Ca        1 MOL      1.736882
    181 O27        -1.6940   -2.2530   -2.3830 oh        1 MOL     -0.943568
    182 H81        -1.1990   -2.4030   -3.1870 ho        1 MOL      0.421336
    183 H82        -2.6150   -2.3770   -2.6270 ho        1 MOL      0.421336
    184 O28        -0.7660    0.4200   -3.0740 oh        1 MOL     -0.943568
    185 H83        -0.2640    0.0290   -3.7960 ho        1 MOL      0.421336
    186 H84        -0.9760    1.3090   -3.3860 ho        1 MOL      0.421336
@<TRIPOS>BOND
     1    1    2 1   
     2    1    4 1   
     3    1    5 1   
     4    1    6 1   
     5    2    3 2   
     6    2    7 1   
     7    7    8 1   
     8    7   15 1   
     9    8    9 1   
    10    8   11 1   
    11    8   16 1   
    12    9   10 2   
    13    9   19 1   
    14   11   12 1   
    15   11   17 1   
    16   11   18 1   
    17   12   13 1   
    18   12   14 1   
    19   19   20 1   
    20   19   27 1   
    21   20   21 1   
    22   20   23 1   
    23   20   28 1   
    24   21   22 2   
    25   21   38 1   
    26   23   24 1   
    27   23   25 1   
    28   23   29 1   
    29   24   26 1   
    30   24   30 1   
    31   24   31 1   
    32   25   32 1   
    33   25   33 1   
    34   25   34 1   
    35   26   35 1   
    36   26   36 1   
    37   26   37 1   
    38   38   39 1   
    39   38   46 1   
    40   39   40 1   
    41   39   42 1   
    42   39   47 1   
    43   40   41 2   
    44   40   50 1   
    45   42   43 1   
    46   42   48 1   
    47   42   49 1   
    48   43   44 1   
    49   43   45 1   
    50   50   51 1   
    51   50   54 1   
    52   51   52 1   
    53   51   55 1   
    54   51   56 1   
    55   52   53 2   
    56   52   57 1   
    57   57   58 1   
    58   57   65 1   
    59   58   59 1   
    60   58   61 1   
    61   58   66 1   
    62   59   60 2   
    63   59   69 1   
    64   61   62 1   
    65   61   67 1   
    66   61   68 1   
    67   62   63 1   
    68   62   64 1   
    69   69   70 1   
    70   69   73 1   
    71   70   71 1   
    72   70   74 1   
    73   70   75 1   
    74   71   72 2   
    75   71   76 1   
    76   76   77 1   
    77   76   85 1   
    78   77   78 1   
    79   77   80 1   
    80   77   86 1   
    81   78   79 2   
    82   78   93 1   
    83   80   81 1   
    84   80   87 1   
    85   80   88 1   
    86   81   82 1   
    87   81   89 1   
    88   81   90 1   
    89   82   83 1   
    90   82   84 2   
    91   83   91 1   
    92   83   92 1   
    93   93   94 1   
    94   93  100 1   
    95   94   95 1   
    96   94   97 1   
    97   94  101 1   
    98   95   96 2   
    99   95  109 1   
   100   97   98 1   
   101   97   99 1   
   102   97  102 1   
   103   98  103 1   
   104   98  104 1   
   105   98  105 1   
   106   99  106 1   
   107   99  107 1   
   108   99  108 1   
   109  109  110 1   
   110  109  117 1   
   111  110  111 1   
   112  110  113 1   
   113  110  118 1   
   114  111  112 2   
   115  111  123 1   
   116  113  114 1   
   117  113  119 1   
   118  113  120 1   
   119  114  115 1   
   120  114  116 2   
   121  115  121 1   
   122  115  122 1   
   123  123  124 1   
   124  123  135 1   
   125  124  125 1   
   126  124  127 1   
   127  124  136 1   
   128  125  126 2   
   129  125  144 1   
   130  127  128 1   
   131  127  137 1   
   132  127  138 1   
   133  128  129 ar  
   134  128  130 ar  
   135  129  131 ar  
   136  129  139 1   
   137  130  132 ar  
   138  130  140 1   
   139  131  133 ar  
   140  131  141 1   
   141  132  133 ar  
   142  132  142 1   
   143  133  134 1   
   144  134  143 1   
   145  144  145 1   
   146  144  153 1   
   147  145  146 1   
   148  145  148 1   
   149  145  154 1   
   150  146  147 2   
   151  146  159 1   
   152  148  149 1   
   153  148  155 1   
   154  148  156 1   
   155  149  150 1   
   156  149  157 1   
   157  149  158 1   
   158  150  151 1   
   159  150  152 1   
   160  159  160 1   
   161  159  168 1   
   162  160  161 1   
   163  160  163 1   
   164  160  169 1   
   165  161  162 2   
   166  161  174 1   
   167  163  164 1   
   168  163  170 1   
   169  163  171 1   
   170  164  165 1   
   171  164  172 1   
   172  164  173 1   
   173  165  166 1   
   174  165  167 1   
   175  174  175 1   
   176  174  179 1   
   177  175  176 1   
   178  175  177 1   
   179  175  178 1   
   180  181  182 1   
   181  181  183 1   
   182  184  185 1   
   183  184  186 1   
@<TRIPOS>SUBSTRUCTURE
     1 MOL         1 TEMP              0 ****  ****    0 ROOT
