@<TRIPOS>MOLECULE
MOL
  189   185     1     0     0
SMALL
resp


@<TRIPOS>ATOM
      1 C1         -0.8690    3.2520    6.1830 c3        1 MOL     -0.410079
      2 C2         -1.2230    2.9390    4.7200 c         1 MOL      0.669518
      3 O1         -0.9760    1.8650    4.1610 o         1 MOL     -0.592086
      4 H1          0.1810    3.5360    6.2500 hc        1 MOL      0.109633
      5 H2         -1.4910    4.0740    6.5400 hc        1 MOL      0.109633
      6 H3         -1.0460    2.3690    6.7970 hc        1 MOL      0.109633
      7 N1         -1.7140    3.9670    3.9800 n         1 MOL     -0.563803
      8 C3         -2.2250    3.7150    2.5920 c3        1 MOL      0.120172
      9 C4         -2.0430    4.9520    1.6460 c         1 MOL      0.454090
     10 O2         -2.4160    6.1130    1.9660 o         1 MOL     -0.573639
     11 C5         -3.7530    3.3150    2.6850 c3        1 MOL     -0.135491
     12 C6         -4.2950    2.9970    1.2930 c         1 MOL      0.666810
     13 O3         -3.6320    2.1500    0.5730 o         1 MOL     -0.646703
     14 O4         -5.3720    3.5290    0.9270 o         1 MOL     -0.646703
     15 H4         -1.7980    4.8670    4.4150 hn        1 MOL      0.312552
     16 H5         -1.6460    2.8870    2.2040 h1        1 MOL      0.118332
     17 H6         -4.3830    4.0380    3.1900 hc        1 MOL      0.011357
     18 H7         -3.8480    2.4630    3.3580 hc        1 MOL      0.011357
     19 N2         -1.4860    4.6760    0.4700 n         1 MOL     -0.371500
     20 C7         -1.5820    5.6210   -0.6530 c3        1 MOL      0.016883
     21 C8         -2.3050    5.0860   -1.9160 c         1 MOL      0.528363
     22 O5         -2.4190    5.9510   -2.7760 o         1 MOL     -0.623706
     23 C9         -0.1280    6.1530   -0.8870 c3        1 MOL      0.172749
     24 C10        -0.1110    7.5290   -1.5320 c3        1 MOL      0.082689
     25 C11         0.7620    5.0230   -1.4570 c3        1 MOL     -0.299433
     26 C12         1.2130    8.3060   -1.2530 c3        1 MOL     -0.397329
     27 H8         -1.1710    3.7280    0.2960 hn        1 MOL      0.231403
     28 H9         -2.1310    6.5320   -0.4210 h1        1 MOL      0.086544
     29 H10         0.2280    6.4260    0.1090 hc        1 MOL      0.010089
     30 H11        -0.9430    8.0990   -1.1200 hc        1 MOL     -0.005896
     31 H12        -0.2460    7.4170   -2.6160 hc        1 MOL     -0.005896
     32 H13         0.3450    4.5810   -2.3610 hc        1 MOL      0.085406
     33 H14         1.7840    5.3180   -1.6920 hc        1 MOL      0.085406
     34 H15         0.7790    4.2770   -0.6560 hc        1 MOL      0.085406
     35 H16         1.3770    8.3570   -0.1780 hc        1 MOL      0.087933
     36 H17         2.0940    7.8800   -1.7320 hc        1 MOL      0.087933
     37 H18         1.1420    9.2360   -1.8250 hc        1 MOL      0.087933
     38 N3         -2.8200    3.8750   -2.0150 n         1 MOL     -0.290002
     39 C13        -3.4940    3.3900   -3.2820 c3        1 MOL      0.078640
     40 C14        -4.9570    2.7110   -3.0700 c         1 MOL      0.349828
     41 O6         -5.5820    2.3870   -4.0900 o         1 MOL     -0.549965
     42 C15        -2.5110    2.4590   -4.0350 c3        1 MOL     -0.217299
     43 C16        -2.2050    1.1370   -3.3350 c         1 MOL      0.785877
     44 O7         -2.7960    0.9480   -2.2510 o         1 MOL     -0.716955
     45 O8         -1.3100    0.3580   -3.7810 o         1 MOL     -0.716955
     46 H19        -2.6840    3.1550   -1.3270 hn        1 MOL      0.235491
     47 H20        -3.7330    4.2220   -3.9490 h1        1 MOL      0.085048
     48 H21        -1.5520    2.9500   -4.1780 hc        1 MOL      0.050780
     49 H22        -2.9440    2.2500   -5.0130 hc        1 MOL      0.050780
     50 N4         -5.3390    2.4000   -1.8410 n         1 MOL     -0.106562
     51 C17        -6.7410    1.9750   -1.5040 c3        1 MOL     -0.010698
     52 C18        -7.0940    0.5240   -1.8970 c         1 MOL      0.402013
     53 O9         -8.3210    0.3020   -1.9930 o         1 MOL     -0.592878
     54 H23        -4.6490    2.5080   -1.1120 hn        1 MOL      0.007597
     55 H24        -7.4420    2.6740   -1.9480 h1        1 MOL      0.069625
     56 H25        -6.9130    2.0260   -0.4320 h1        1 MOL      0.069625
     57 N5         -6.0850   -0.3110   -2.2510 n         1 MOL     -0.196776
     58 C19        -6.2600   -1.6580   -2.6930 c3        1 MOL     -0.001183
     59 C20        -6.7060   -2.6780   -1.5070 c         1 MOL      0.371556
     60 O10        -6.8350   -3.8520   -1.6970 o         1 MOL     -0.519097
     61 C21        -4.9940   -2.1220   -3.3440 c3        1 MOL     -0.363192
     62 C22        -3.7820   -2.3510   -2.4060 c         1 MOL      0.758811
     63 O11        -3.7180   -1.7370   -1.3490 o         1 MOL     -0.717730
     64 O12        -2.7610   -3.0570   -2.7140 o         1 MOL     -0.717730
     65 H26        -5.1470    0.0700   -2.1910 hn        1 MOL      0.261997
     66 H27        -7.0700   -1.7230   -3.4050 h1        1 MOL      0.109166
     67 H28        -4.7370   -1.4220   -4.1370 hc        1 MOL      0.110543
     68 H29        -5.3110   -3.0850   -3.7490 hc        1 MOL      0.110543
     69 N6         -6.8140   -2.2770   -0.2870 n         1 MOL     -0.181255
     70 C23        -7.2440   -3.1560    0.7640 c3        1 MOL     -0.199611
     71 C24        -6.1070   -3.7970    1.5410 c         1 MOL      0.631411
     72 O13        -6.4310   -4.6600    2.3890 o         1 MOL     -0.574056
     73 H30        -6.6470   -1.2950   -0.1310 hn        1 MOL      0.259590
     74 H31        -7.8500   -3.9620    0.3660 h1        1 MOL      0.104561
     75 H32        -7.9050   -2.5790    1.4210 h1        1 MOL      0.104561
     76 N7         -4.8220   -3.3020    1.3380 n         1 MOL     -0.497362
     77 C25        -3.6150   -4.0320    1.8510 c3        1 MOL      0.102023
     78 C26        -2.3560   -3.1060    1.9060 c         1 MOL      0.508624
     79 O14        -2.0490   -2.3760    0.9130 o         1 MOL     -0.519656
     80 C27        -3.3700   -5.3150    1.0760 c3        1 MOL     -0.279838
     81 C28        -3.3750   -5.0710   -0.4660 c3        1 MOL      0.092529
     82 C29        -3.1840   -6.2930   -1.3370 c         1 MOL      0.515949
     83 N8         -2.9720   -6.0720   -2.6130 n         1 MOL     -0.701615
     84 O15        -3.3020   -7.4630   -0.8700 o         1 MOL     -0.604359
     85 H33        -4.6080   -2.5360    0.7040 hn        1 MOL      0.218417
     86 H34        -3.7370   -4.3540    2.8830 h1        1 MOL      0.022044
     87 H35        -4.1110   -6.0610    1.3380 hc        1 MOL      0.097526
     88 H36        -2.3770   -5.6680    1.3310 hc        1 MOL      0.097526
     89 H37        -2.6130   -4.3560   -0.7540 hc        1 MOL      0.057604
     90 H38        -4.3070   -4.5850   -0.7720 hc        1 MOL      0.057604
     91 H39        -2.9340   -5.1220   -2.9450 hn        1 MOL      0.329461
     92 H40        -2.6890   -6.8550   -3.1930 hn        1 MOL      0.329461
     93 N9         -1.5000   -3.1880    2.8930 n         1 MOL     -0.397170
     94 C30        -0.2560   -2.4590    2.9260 c3        1 MOL     -0.233228
     95 C31         0.7750   -3.1980    2.1430 c         1 MOL      0.691712
     96 O16         1.0920   -4.3210    2.3930 o         1 MOL     -0.628862
     97 C32         0.1980   -2.4170    4.4110 c3        1 MOL      0.388978
     98 C33         1.6480   -1.8940    4.5220 c3        1 MOL     -0.372165
     99 C34        -0.7220   -1.6230    5.2570 c3        1 MOL     -0.372165
    100 H41        -1.7480   -3.7670    3.6750 hn        1 MOL      0.296007
    101 H42        -0.3670   -1.4320    2.5880 h1        1 MOL      0.132058
    102 H43         0.1450   -3.4360    4.8100 hc        1 MOL     -0.062035
    103 H44         2.3680   -2.4470    3.9080 hc        1 MOL      0.079435
    104 H45         1.7190   -0.8710    4.1780 hc        1 MOL      0.079435
    105 H46         1.9700   -1.9920    5.5560 hc        1 MOL      0.079435
    106 H47        -0.4440   -0.5980    4.9840 hc        1 MOL      0.079435
    107 H48        -1.7760   -1.8890    5.2190 hc        1 MOL      0.079435
    108 H49        -0.3530   -1.7020    6.2860 hc        1 MOL      0.079435
    109 N10         1.3850   -2.5480    1.1810 n         1 MOL     -0.337413
    110 C35         2.5790   -3.0570    0.4700 c3        1 MOL      0.154306
    111 C36         3.9750   -2.4620    0.9610 c         1 MOL      0.370035
    112 O17         3.9480   -1.4320    1.6600 o         1 MOL     -0.441535
    113 C37         2.3350   -3.0470   -1.0160 c3        1 MOL     -0.131162
    114 C38         2.9030   -1.8200   -1.7460 c         1 MOL      0.555939
    115 N11         2.0880   -0.9650   -2.3740 n         1 MOL     -0.717369
    116 O18         4.1150   -1.6260   -1.8590 o         1 MOL     -0.528921
    117 H50         1.0680   -1.6050    0.9830 hn        1 MOL      0.237314
    118 H51         2.6630   -4.1150    0.6990 h1        1 MOL      0.028625
    119 H52         1.2520   -3.0080   -1.1510 hc        1 MOL      0.040087
    120 H53         2.7960   -3.9320   -1.4310 hc        1 MOL      0.040087
    121 H54         1.0850   -1.0170   -2.2950 hn        1 MOL      0.376462
    122 H55         2.5780   -0.1150   -2.6320 hn        1 MOL      0.376462
    123 N12         5.0700   -3.0480    0.4670 n         1 MOL     -0.413572
    124 C39         6.4440   -2.6740    0.9110 c3        1 MOL      0.062797
    125 C40         6.8390   -1.1650    0.6570 c         1 MOL      0.483407
    126 O19         7.6420   -0.5780    1.3640 o         1 MOL     -0.610087
    127 C41         7.4320   -3.6330    0.2540 c3        1 MOL     -0.191957
    128 C42         7.6460   -3.3910   -1.2900 ca        1 MOL     -0.047601
    129 C43         8.7260   -2.5580   -1.6590 ca        1 MOL     -0.081906
    130 C44         6.8140   -3.9980   -2.2490 ca        1 MOL     -0.081906
    131 C45         8.9800   -2.1410   -2.9430 ca        1 MOL     -0.407375
    132 C46         7.0280   -3.6420   -3.5860 ca        1 MOL     -0.407375
    133 C47         7.9580   -2.6350   -3.8750 ca        1 MOL      0.492020
    134 O20         7.9670   -2.1800   -5.1100 oh        1 MOL     -0.558334
    135 H56         4.9100   -3.9250   -0.0110 hn        1 MOL      0.281513
    136 H57         6.4830   -2.8850    1.9740 h1        1 MOL      0.083457
    137 H58         7.0870   -4.6620    0.3180 hc        1 MOL      0.059974
    138 H59         8.3740   -3.4520    0.7760 hc        1 MOL      0.059974
    139 H60         9.2930   -2.1750   -0.8220 ha        1 MOL      0.135748
    140 H61         6.0030   -4.6490   -1.9590 ha        1 MOL      0.135748
    141 H62         9.7470   -1.4140   -3.1470 ha        1 MOL      0.196288
    142 H63         6.3910   -3.9620   -4.3980 ha        1 MOL      0.196288
    143 H64         8.6750   -1.5550   -5.2600 ho        1 MOL      0.418818
    144 N13         6.1230   -0.4960   -0.1470 n         1 MOL     -0.051241
    145 C48         6.2370    0.9310   -0.5060 c3        1 MOL     -0.058014
    146 C49         5.4210    1.8060    0.4290 c         1 MOL      0.411446
    147 O21         5.4980    3.0110    0.3970 o         1 MOL     -0.503425
    148 C50         5.9730    1.1220   -1.9930 c3        1 MOL      0.053109
    149 C51         6.1370    2.5220   -2.5880 c3        1 MOL     -0.114016
    150 C52         7.5560    2.8860   -2.8180 c         1 MOL      0.700393
    151 O22         8.1280    3.6360   -1.9590 o         1 MOL     -0.750091
    152 O23         8.1230    2.5790   -3.9050 o         1 MOL     -0.750091
    153 H65         5.3980   -0.9790   -0.6590 hn        1 MOL      0.171731
    154 H66         7.2960    1.1570   -0.4480 h1        1 MOL      0.104412
    155 H67         4.9760    0.7270   -2.1680 hc        1 MOL     -0.013610
    156 H68         6.6530    0.4570   -2.5180 hc        1 MOL     -0.013610
    157 H69         5.5590    3.2700   -2.0320 hc        1 MOL      0.000051
    158 H70         5.6020    2.4260   -3.5300 hc        1 MOL      0.000051
    159 N14         4.6250    1.2600    1.3550 n         1 MOL     -0.181831
    160 C53         3.7740    1.8670    2.3860 c3        1 MOL     -0.340937
    161 C54         4.2690    1.5040    3.8090 c         1 MOL      0.529785
    162 O24         3.6930    1.9340    4.8010 o         1 MOL     -0.546004
    163 C55         2.3080    1.4390    2.1850 c3        1 MOL      0.115562
    164 C56         1.7650    1.8400    0.8040 c3        1 MOL     -0.204963
    165 C57         0.3180    1.3630    0.6510 c         1 MOL      0.625472
    166 O25         0.0030    0.2060    1.0230 o         1 MOL     -0.693097
    167 O26        -0.6040    2.0360    0.1620 o         1 MOL     -0.693097
    168 H71         4.5080    0.2580    1.2910 hn        1 MOL      0.181642
    169 H72         3.9570    2.9420    2.3560 h1        1 MOL      0.173014
    170 H73         1.6650    1.8710    2.9530 hc        1 MOL      0.068078
    171 H74         2.1750    0.3700    2.3390 hc        1 MOL      0.068078
    172 H75         2.3470    1.3100    0.0460 hc        1 MOL      0.058635
    173 H76         1.7330    2.9270    0.7740 hc        1 MOL      0.058635
    174 N15         5.3660    0.6920    3.8820 n         1 MOL     -0.211903
    175 C58         5.9320    0.4720    5.2590 c3        1 MOL     -0.109113
    176 H77         6.7960    1.1200    5.4030 h1        1 MOL      0.059368
    177 H78         5.1730    0.7070    6.0060 h1        1 MOL      0.059368
    178 H79         6.2360   -0.5700    5.3640 h1        1 MOL      0.059368
    179 H80         5.5780    0.1880    3.0400 hn        1 MOL      0.149917
    180 Ca1        -2.3630   -0.0970   -0.0110 Ca        1 MOL      1.718682
    181 O27        -4.9420   -0.4720    1.2640 oh        1 MOL     -0.894474
    182 H81        -4.4260   -0.6020    2.0670 ho        1 MOL      0.428582
    183 H82        -5.6740    0.0840    1.5350 ho        1 MOL      0.428582
    184 O28        -2.7260   -0.0140    2.9370 oh        1 MOL     -0.894474
    185 H83        -3.1350   -0.2010    3.7790 ho        1 MOL      0.428582
    186 H84        -1.9490    0.5130    3.1460 ho        1 MOL      0.428582
    187 O29        -0.8180   -1.4620   -1.7410 oh        1 MOL     -0.894474
    188 H85        -1.0320   -1.0020   -2.5530 ho        1 MOL      0.428582
    189 H86        -1.3170   -2.2730   -1.7950 ho        1 MOL      0.428582
@<TRIPOS>BOND
     1    1    2 1   
     2    1    4 1   
     3    1    5 1   
     4    1    6 1   
     5    2    3 2   
     6    2    7 1   
     7    7    8 1   
     8    7   15 1   
     9    8    9 1   
    10    8   11 1   
    11    8   16 1   
    12    9   10 2   
    13    9   19 1   
    14   11   12 1   
    15   11   17 1   
    16   11   18 1   
    17   12   13 1   
    18   12   14 1   
    19   19   20 1   
    20   19   27 1   
    21   20   21 1   
    22   20   23 1   
    23   20   28 1   
    24   21   22 2   
    25   21   38 1   
    26   23   24 1   
    27   23   25 1   
    28   23   29 1   
    29   24   26 1   
    30   24   30 1   
    31   24   31 1   
    32   25   32 1   
    33   25   33 1   
    34   25   34 1   
    35   26   35 1   
    36   26   36 1   
    37   26   37 1   
    38   38   39 1   
    39   38   46 1   
    40   39   40 1   
    41   39   42 1   
    42   39   47 1   
    43   40   41 2   
    44   40   50 1   
    45   42   43 1   
    46   42   48 1   
    47   42   49 1   
    48   43   44 1   
    49   43   45 1   
    50   50   51 1   
    51   50   54 1   
    52   51   52 1   
    53   51   55 1   
    54   51   56 1   
    55   52   53 2   
    56   52   57 1   
    57   57   58 1   
    58   57   65 1   
    59   58   59 1   
    60   58   61 1   
    61   58   66 1   
    62   59   60 2   
    63   59   69 1   
    64   61   62 1   
    65   61   67 1   
    66   61   68 1   
    67   62   63 1   
    68   62   64 1   
    69   69   70 1   
    70   69   73 1   
    71   70   71 1   
    72   70   74 1   
    73   70   75 1   
    74   71   72 2   
    75   71   76 1   
    76   76   77 1   
    77   76   85 1   
    78   77   78 1   
    79   77   80 1   
    80   77   86 1   
    81   78   79 2   
    82   78   93 1   
    83   80   81 1   
    84   80   87 1   
    85   80   88 1   
    86   81   82 1   
    87   81   89 1   
    88   81   90 1   
    89   82   83 1   
    90   82   84 2   
    91   83   91 1   
    92   83   92 1   
    93   93   94 1   
    94   93  100 1   
    95   94   95 1   
    96   94   97 1   
    97   94  101 1   
    98   95   96 2   
    99   95  109 1   
   100   97   98 1   
   101   97   99 1   
   102   97  102 1   
   103   98  103 1   
   104   98  104 1   
   105   98  105 1   
   106   99  106 1   
   107   99  107 1   
   108   99  108 1   
   109  109  110 1   
   110  109  117 1   
   111  110  111 1   
   112  110  113 1   
   113  110  118 1   
   114  111  112 2   
   115  111  123 1   
   116  113  114 1   
   117  113  119 1   
   118  113  120 1   
   119  114  115 1   
   120  114  116 2   
   121  115  121 1   
   122  115  122 1   
   123  123  124 1   
   124  123  135 1   
   125  124  125 1   
   126  124  127 1   
   127  124  136 1   
   128  125  126 2   
   129  125  144 1   
   130  127  128 1   
   131  127  137 1   
   132  127  138 1   
   133  128  129 ar  
   134  128  130 ar  
   135  129  131 ar  
   136  129  139 1   
   137  130  132 ar  
   138  130  140 1   
   139  131  133 ar  
   140  131  141 1   
   141  132  133 ar  
   142  132  142 1   
   143  133  134 1   
   144  134  143 1   
   145  144  145 1   
   146  144  153 1   
   147  145  146 1   
   148  145  148 1   
   149  145  154 1   
   150  146  147 2   
   151  146  159 1   
   152  148  149 1   
   153  148  155 1   
   154  148  156 1   
   155  149  150 1   
   156  149  157 1   
   157  149  158 1   
   158  150  151 1   
   159  150  152 1   
   160  159  160 1   
   161  159  168 1   
   162  160  161 1   
   163  160  163 1   
   164  160  169 1   
   165  161  162 2   
   166  161  174 1   
   167  163  164 1   
   168  163  170 1   
   169  163  171 1   
   170  164  165 1   
   171  164  172 1   
   172  164  173 1   
   173  165  166 1   
   174  165  167 1   
   175  174  175 1   
   176  174  179 1   
   177  175  176 1   
   178  175  177 1   
   179  175  178 1   
   180  181  182 1   
   181  181  183 1   
   182  184  185 1   
   183  184  186 1   
   184  187  188 1   
   185  187  189 1   
@<TRIPOS>SUBSTRUCTURE
     1 MOL         1 TEMP              0 ****  ****    0 ROOT
