@<TRIPOS>MOLECULE
MOL
  189   185     1     0     0
SMALL
resp


@<TRIPOS>ATOM
      1 C1          0.7750    2.4930    5.2320 c3        1 MOL     -0.447965
      2 C2          0.1670    2.3030    3.8030 c         1 MOL      0.803013
      3 O1          0.9040    2.5220    2.8700 o         1 MOL     -0.574046
      4 H1          0.0490    2.9940    5.8720 hc        1 MOL      0.105265
      5 H2          1.0210    1.5190    5.6560 hc        1 MOL      0.105265
      6 H3          1.6790    3.0990    5.1660 hc        1 MOL      0.105265
      7 N1         -1.1420    2.0690    3.7040 n         1 MOL     -0.733046
      8 C3         -1.7280    1.8780    2.4040 c3        1 MOL      0.308902
      9 C4         -2.0630    3.2800    1.8810 c         1 MOL      0.405934
     10 O2         -2.8690    4.0020    2.5000 o         1 MOL     -0.593674
     11 C5         -2.9220    0.9460    2.7110 c3        1 MOL     -0.212573
     12 C6         -3.7660    0.5880    1.5020 c         1 MOL      0.668435
     13 O3         -3.3730    0.8920    0.3180 o         1 MOL     -0.615253
     14 O4         -4.8110   -0.0100    1.8110 o         1 MOL     -0.615253
     15 H4         -1.7740    2.3500    4.4320 hn        1 MOL      0.359154
     16 H5         -1.1280    1.3670    1.6450 h1        1 MOL     -0.036232
     17 H6         -3.5310    1.3290    3.5270 hc        1 MOL      0.061013
     18 H7         -2.4850    0.0240    3.0770 hc        1 MOL      0.061013
     19 N2         -1.4850    3.8480    0.7650 n         1 MOL     -0.067702
     20 C7         -1.5870    5.2710    0.3520 c3        1 MOL     -0.052589
     21 C8         -2.5340    5.4500   -0.7250 c         1 MOL      0.463104
     22 O5         -2.8000    6.5980   -1.0940 o         1 MOL     -0.564727
     23 C9         -0.1810    5.7410    0.0220 c3        1 MOL      0.013127
     24 C10         0.9750    5.7670    1.0470 c3        1 MOL      0.166901
     25 C11         0.4990    6.3810    2.4530 c3        1 MOL     -0.050598
     26 C12         1.6400    7.3100    3.0640 c3        1 MOL      0.004803
     27 N3          2.3130    6.7160    4.2350 n4        1 MOL     -0.510265
     28 H8         -0.8380    3.2210    0.3120 hn        1 MOL      0.291510
     29 H9         -1.8250    5.9270    1.1900 h1        1 MOL      0.061004
     30 H10        -0.3030    6.7600   -0.3250 hc        1 MOL     -0.001576
     31 H11         0.1450    5.2060   -0.8760 hc        1 MOL     -0.001576
     32 H12         1.7990    6.3760    0.6900 hc        1 MOL     -0.060227
     33 H13         1.2490    4.7110    1.2030 hc        1 MOL     -0.060227
     34 H14         0.2340    5.5480    3.1060 hc        1 MOL      0.029844
     35 H15        -0.3130    7.0700    2.2410 hc        1 MOL      0.029844
     36 H16         1.1950    8.2600    3.3560 hx        1 MOL      0.105060
     37 H17         2.3470    7.6420    2.3000 hx        1 MOL      0.105060
     38 H18         2.8780    5.9200    3.9670 hn        1 MOL      0.370991
     39 H19         2.8680    7.4510    4.6510 hn        1 MOL      0.370991
     40 H20         1.5800    6.3530    4.8210 hn        1 MOL      0.370991
     41 N4         -3.0630    4.3750   -1.3900 n         1 MOL     -0.035694
     42 C13        -4.0930    4.3110   -2.3900 c3        1 MOL     -0.183456
     43 C14        -5.3560    3.4100   -1.9080 c         1 MOL      0.484379
     44 O6         -6.4090    3.3810   -2.6310 o         1 MOL     -0.489599
     45 C15        -3.5740    3.8180   -3.7810 c3        1 MOL     -0.048774
     46 C16        -2.8860    2.4850   -3.6740 c         1 MOL      0.729851
     47 O7         -2.3920    1.9810   -4.7130 o         1 MOL     -0.693354
     48 O8         -2.7040    1.8950   -2.5360 o         1 MOL     -0.693354
     49 H21        -2.8370    3.4610   -1.0230 hn        1 MOL     -0.130740
     50 H22        -4.6020    5.2750   -2.4220 h1        1 MOL      0.108541
     51 H23        -2.8760    4.4900   -4.2740 hc        1 MOL      0.035586
     52 H24        -4.4100    3.7270   -4.4710 hc        1 MOL      0.035586
     53 N5         -5.3780    2.8120   -0.7000 n         1 MOL     -0.250987
     54 C17        -6.5980    2.3250   -0.0560 c3        1 MOL     -0.137755
     55 C18        -7.2760    1.0820   -0.6740 c         1 MOL      0.522593
     56 O9         -8.3620    1.2790   -1.1940 o         1 MOL     -0.557949
     57 H25        -4.5190    2.7020   -0.1690 hn        1 MOL      0.242279
     58 H26        -7.3390    3.1080   -0.1550 h1        1 MOL      0.076401
     59 H27        -6.4090    2.1100    1.0000 h1        1 MOL      0.076401
     60 N6         -6.6380   -0.0270   -0.6800 n         1 MOL     -0.182387
     61 C19        -7.0660   -1.2890   -1.3310 c3        1 MOL      0.084629
     62 C20        -7.0340   -2.5240   -0.4140 c         1 MOL      0.355663
     63 O10        -7.1890   -3.7000   -0.7980 o         1 MOL     -0.472025
     64 C21        -6.2720   -1.5910   -2.6160 c3        1 MOL     -0.237738
     65 C22        -4.7550   -1.5470   -2.3430 c         1 MOL      0.761630
     66 O11        -4.2810   -1.8820   -1.2360 o         1 MOL     -0.726222
     67 O12        -3.9780   -0.9990   -3.1560 o         1 MOL     -0.726222
     68 H28        -5.7610   -0.0750   -0.1660 hn        1 MOL      0.035649
     69 H29        -8.1380   -1.1790   -1.5010 h1        1 MOL      0.065055
     70 H30        -6.5920   -0.8120   -3.3050 hc        1 MOL      0.081447
     71 H31        -6.4720   -2.5980   -2.9960 hc        1 MOL      0.081447
     72 N7         -6.7100   -2.2670    0.8900 n         1 MOL     -0.230428
     73 C23        -6.7390   -3.2470    1.9590 c3        1 MOL     -0.191907
     74 C24        -5.5770   -4.2600    1.7900 c         1 MOL      0.512217
     75 O13        -5.6800   -5.4690    2.1090 o         1 MOL     -0.559469
     76 H32        -6.5130   -1.2860    1.0620 hn        1 MOL      0.212445
     77 H33        -7.6960   -3.7780    1.9820 h1        1 MOL      0.104080
     78 H34        -6.6290   -2.6870    2.8890 h1        1 MOL      0.104080
     79 N8         -4.5470   -3.7430    1.2010 n         1 MOL     -0.247763
     80 C25        -3.2350   -4.3450    1.0210 c3        1 MOL     -0.387379
     81 C26        -2.0340   -3.3910    1.0670 c         1 MOL      0.784188
     82 O14        -1.9530   -2.4820    0.2510 o         1 MOL     -0.693013
     83 C27        -3.0700   -5.2150   -0.2930 c3        1 MOL      0.651076
     84 C28        -3.6930   -6.6020   -0.2800 c3        1 MOL     -0.455993
     85 O15        -3.5610   -4.4090   -1.3280 oh        1 MOL     -0.706698
     86 H35        -4.7190   -2.8260    0.8160 hn        1 MOL      0.243603
     87 H36        -3.1630   -4.9880    1.8940 h1        1 MOL      0.121496
     88 H37        -1.9890   -5.3320   -0.3330 h1        1 MOL     -0.105281
     89 H38        -3.7020   -3.5230   -1.0090 ho        1 MOL      0.539816
     90 H39        -3.3310   -7.1780   -1.1330 hc        1 MOL      0.116269
     91 H40        -3.4550   -7.1230    0.6440 hc        1 MOL      0.116269
     92 H41        -4.7800   -6.5310   -0.3540 hc        1 MOL      0.116269
     93 N9         -0.9930   -3.7430    1.7950 n         1 MOL     -0.582122
     94 C29         0.2480   -3.0850    1.8810 c3        1 MOL     -0.002648
     95 C30         1.3030   -3.7140    0.9700 c         1 MOL      0.774589
     96 O16         1.6750   -4.8810    1.1400 o         1 MOL     -0.597276
     97 C31         0.7380   -3.0380    3.3040 c3        1 MOL      0.034491
     98 C32        -0.1490   -2.0790    4.1480 c3        1 MOL      0.108752
     99 C33         2.1770   -2.6770    3.4190 c3        1 MOL     -0.257555
    100 C34         0.0290   -2.1610    5.6770 c3        1 MOL     -0.171054
    101 H42        -1.1810   -4.5440    2.3740 hn        1 MOL      0.283140
    102 H43         0.0810   -2.0700    1.5170 h1        1 MOL      0.111944
    103 H44         0.7780   -4.0910    3.5720 hc        1 MOL      0.038234
    104 H45        -1.1990   -2.2040    3.8760 hc        1 MOL     -0.004384
    105 H46        -0.0250   -1.0470    3.8080 hc        1 MOL     -0.004384
    106 H47         2.4180   -1.7880    2.8390 hc        1 MOL      0.056362
    107 H48         2.3670   -2.4480    4.4680 hc        1 MOL      0.056362
    108 H49         2.7580   -3.4880    2.9810 hc        1 MOL      0.056362
    109 H50        -0.6720   -1.4990    6.1830 hc        1 MOL      0.039637
    110 H51        -0.1700   -3.2120    5.9050 hc        1 MOL      0.039637
    111 H52         1.0480   -1.9260    5.9900 hc        1 MOL      0.039637
    112 N10         1.7900   -3.0120   -0.0570 n         1 MOL     -0.518968
    113 C35         2.9350   -3.4740   -0.9390 c3        1 MOL      0.009193
    114 C36         4.2120   -3.1330   -0.2650 c         1 MOL      0.342055
    115 O17         4.2520   -2.5180    0.8130 o         1 MOL     -0.344726
    116 C37         2.8860   -2.7110   -2.3040 c3        1 MOL      0.136561
    117 C38         1.8270   -3.1770   -3.2850 c3        1 MOL     -0.326133
    118 O18         2.7790   -1.2800   -2.2720 oh        1 MOL     -0.570748
    119 H53         1.3270   -2.1440   -0.2810 hn        1 MOL      0.259162
    120 H54         2.9080   -4.5630   -1.0100 h1        1 MOL      0.122712
    121 H55         3.8660   -2.7810   -2.7680 h1        1 MOL      0.050606
    122 H56         1.9460   -1.0910   -1.8240 ho        1 MOL      0.437150
    123 H57         1.8510   -2.6270   -4.2250 hc        1 MOL      0.102527
    124 H58         1.8550   -4.2330   -3.5590 hc        1 MOL      0.102527
    125 H59         0.8510   -2.8840   -2.9150 hc        1 MOL      0.102527
    126 N11         5.3110   -3.6840   -0.8030 n         1 MOL     -0.234631
    127 C39         6.7060   -3.4450   -0.3700 c3        1 MOL     -0.016344
    128 C40         6.9760   -1.9940   -0.2750 c         1 MOL      0.370909
    129 O19         7.4050   -1.4800    0.7870 o         1 MOL     -0.491459
    130 C41         7.7210   -4.1000   -1.3220 c3        1 MOL      0.395504
    131 C42         9.0970   -4.2220   -0.6960 c3        1 MOL     -0.476081
    132 O20         7.2290   -5.3620   -1.6710 oh        1 MOL     -0.614302
    133 H60         5.2370   -4.3140   -1.5850 hn        1 MOL      0.198917
    134 H61         6.8250   -3.8690    0.6210 h1        1 MOL      0.103110
    135 H62         7.7140   -3.5100   -2.2370 h1        1 MOL     -0.044096
    136 H63         7.8710   -5.7940   -2.2460 ho        1 MOL      0.405204
    137 H64         9.0070   -4.6270    0.3130 hc        1 MOL      0.134967
    138 H65         9.7350   -4.8480   -1.3260 hc        1 MOL      0.134967
    139 H66         9.5170   -3.2240   -0.6010 hc        1 MOL      0.134967
    140 N12         6.7610   -1.2550   -1.3630 n         1 MOL     -0.285645
    141 C43         6.8570    0.2070   -1.5560 c3        1 MOL      0.026727
    142 C44         6.1400    0.9290   -0.3760 c         1 MOL      0.534437
    143 O21         6.7110    1.7560    0.2530 o         1 MOL     -0.546149
    144 C45         6.1720    0.5420   -2.8830 c3        1 MOL     -0.074463
    145 C46         6.2250    1.9800   -3.2240 c3        1 MOL     -0.121078
    146 C47         7.5700    2.6390   -3.2060 c3        1 MOL      0.016409
    147 C48         7.7040    4.0010   -3.8970 c3        1 MOL      0.158973
    148 N13         8.9330    4.7730   -3.7030 n4        1 MOL     -0.412866
    149 H67         6.6040   -1.8220   -2.1890 hn        1 MOL      0.190446
    150 H68         7.8700    0.6130   -1.5290 h1        1 MOL      0.025192
    151 H69         5.1380    0.1770   -2.8760 hc        1 MOL      0.065139
    152 H70         6.7840    0.0860   -3.6540 hc        1 MOL      0.065139
    153 H71         5.5450    2.4070   -2.4880 hc        1 MOL      0.055752
    154 H72         5.8590    1.9910   -4.2540 hc        1 MOL      0.055752
    155 H73         8.2970    2.0030   -3.7070 hc        1 MOL      0.016884
    156 H74         7.7860    2.7950   -2.1490 hc        1 MOL      0.016884
    157 H75         6.8020    4.6040   -3.7270 hx        1 MOL      0.042803
    158 H76         7.5630    3.7380   -4.9390 hx        1 MOL      0.042803
    159 H77         8.8940    5.4910   -4.4110 hn        1 MOL      0.327995
    160 H78         8.9360    5.2390   -2.8000 hn        1 MOL      0.327995
    161 H79         9.7870    4.2460   -3.7140 hn        1 MOL      0.327995
    162 N14         4.9780    0.4970    0.0160 n         1 MOL     -0.101094
    163 C49         4.2240    1.1740    1.0270 c3        1 MOL     -0.173261
    164 C50         4.7680    0.9610    2.4300 c         1 MOL      0.402217
    165 O22         4.7530    1.8320    3.3520 o         1 MOL     -0.576952
    166 C51         2.7550    0.7320    1.0120 c3        1 MOL      0.196708
    167 C52         1.9930    1.5430    0.0080 c3        1 MOL      0.034394
    168 C53         0.7030    0.8150   -0.4220 c         1 MOL      0.765882
    169 O23        -0.3610    1.4450   -0.5870 o         1 MOL     -0.779743
    170 O24         0.7550   -0.3330   -0.7580 o         1 MOL     -0.779743
    171 H80         4.5530   -0.2490   -0.4970 hn        1 MOL      0.106144
    172 H81         4.2000    2.2530    0.9180 h1        1 MOL      0.069936
    173 H82         2.3050    0.8970    1.9880 hc        1 MOL     -0.027519
    174 H83         2.5900   -0.3150    0.7610 hc        1 MOL     -0.027519
    175 H84         2.5470    1.7430   -0.9100 hc        1 MOL     -0.049762
    176 H85         1.6600    2.4850    0.4380 hc        1 MOL     -0.049762
    177 N15         5.2990   -0.2340    2.7000 n         1 MOL     -0.026612
    178 C54         5.9580   -0.5300    4.0750 c3        1 MOL     -0.275126
    179 H86         5.3850   -0.0420    4.8640 h1        1 MOL      0.113207
    180 H87         5.9710   -1.6050    4.2490 h1        1 MOL      0.113207
    181 H88         6.9790   -0.1480    4.0790 h1        1 MOL      0.113207
    182 H89         5.1800   -0.9520    2.0130 hn        1 MOL      0.091653
    183 Ca1        -2.0230   -0.3020   -1.6120 Ca        1 MOL      1.772573
    184 O25        -0.7360    0.1140   -3.8290 oh        1 MOL     -0.826733
    185 H90         0.0960    0.3150   -4.2620 ho        1 MOL      0.383697
    186 H91        -1.3520    0.7520   -4.2030 ho        1 MOL      0.383697
    187 O26        -1.5560   -2.8820   -2.7160 oh        1 MOL     -0.826733
    188 H92        -1.3350   -3.2350   -3.5780 ho        1 MOL      0.383697
    189 H93        -2.1300   -3.5370   -2.3270 ho        1 MOL      0.383697
@<TRIPOS>BOND
     1    1    2 1   
     2    1    4 1   
     3    1    5 1   
     4    1    6 1   
     5    2    3 2   
     6    2    7 1   
     7    7    8 1   
     8    7   15 1   
     9    8    9 1   
    10    8   11 1   
    11    8   16 1   
    12    9   10 2   
    13    9   19 1   
    14   11   12 1   
    15   11   17 1   
    16   11   18 1   
    17   12   13 1   
    18   12   14 1   
    19   19   20 1   
    20   19   28 1   
    21   20   21 1   
    22   20   23 1   
    23   20   29 1   
    24   21   22 2   
    25   21   41 1   
    26   23   24 1   
    27   23   30 1   
    28   23   31 1   
    29   24   25 1   
    30   24   32 1   
    31   24   33 1   
    32   25   26 1   
    33   25   34 1   
    34   25   35 1   
    35   26   27 1   
    36   26   36 1   
    37   26   37 1   
    38   27   38 1   
    39   27   39 1   
    40   27   40 1   
    41   41   42 1   
    42   41   49 1   
    43   42   43 1   
    44   42   45 1   
    45   42   50 1   
    46   43   44 2   
    47   43   53 1   
    48   45   46 1   
    49   45   51 1   
    50   45   52 1   
    51   46   47 1   
    52   46   48 1   
    53   53   54 1   
    54   53   57 1   
    55   54   55 1   
    56   54   58 1   
    57   54   59 1   
    58   55   56 2   
    59   55   60 1   
    60   60   61 1   
    61   60   68 1   
    62   61   62 1   
    63   61   64 1   
    64   61   69 1   
    65   62   63 2   
    66   62   72 1   
    67   64   65 1   
    68   64   70 1   
    69   64   71 1   
    70   65   66 1   
    71   65   67 1   
    72   72   73 1   
    73   72   76 1   
    74   73   74 1   
    75   73   77 1   
    76   73   78 1   
    77   74   75 2   
    78   74   79 1   
    79   79   80 1   
    80   79   86 1   
    81   80   81 1   
    82   80   83 1   
    83   80   87 1   
    84   81   82 2   
    85   81   93 1   
    86   83   84 1   
    87   83   85 1   
    88   83   88 1   
    89   84   90 1   
    90   84   91 1   
    91   84   92 1   
    92   85   89 1   
    93   93   94 1   
    94   93  101 1   
    95   94   95 1   
    96   94   97 1   
    97   94  102 1   
    98   95   96 2   
    99   95  112 1   
   100   97   98 1   
   101   97   99 1   
   102   97  103 1   
   103   98  100 1   
   104   98  104 1   
   105   98  105 1   
   106   99  106 1   
   107   99  107 1   
   108   99  108 1   
   109  100  109 1   
   110  100  110 1   
   111  100  111 1   
   112  112  113 1   
   113  112  119 1   
   114  113  114 1   
   115  113  116 1   
   116  113  120 1   
   117  114  115 2   
   118  114  126 1   
   119  116  117 1   
   120  116  118 1   
   121  116  121 1   
   122  117  123 1   
   123  117  124 1   
   124  117  125 1   
   125  118  122 1   
   126  126  127 1   
   127  126  133 1   
   128  127  128 1   
   129  127  130 1   
   130  127  134 1   
   131  128  129 2   
   132  128  140 1   
   133  130  131 1   
   134  130  132 1   
   135  130  135 1   
   136  131  137 1   
   137  131  138 1   
   138  131  139 1   
   139  132  136 1   
   140  140  141 1   
   141  140  149 1   
   142  141  142 1   
   143  141  144 1   
   144  141  150 1   
   145  142  143 2   
   146  142  162 1   
   147  144  145 1   
   148  144  151 1   
   149  144  152 1   
   150  145  146 1   
   151  145  153 1   
   152  145  154 1   
   153  146  147 1   
   154  146  155 1   
   155  146  156 1   
   156  147  148 1   
   157  147  157 1   
   158  147  158 1   
   159  148  159 1   
   160  148  160 1   
   161  148  161 1   
   162  162  163 1   
   163  162  171 1   
   164  163  164 1   
   165  163  166 1   
   166  163  172 1   
   167  164  165 2   
   168  164  177 1   
   169  166  167 1   
   170  166  173 1   
   171  166  174 1   
   172  167  168 1   
   173  167  175 1   
   174  167  176 1   
   175  168  169 1   
   176  168  170 1   
   177  177  178 1   
   178  177  182 1   
   179  178  179 1   
   180  178  180 1   
   181  178  181 1   
   182  184  185 1   
   183  184  186 1   
   184  187  188 1   
   185  187  189 1   
@<TRIPOS>SUBSTRUCTURE
     1 MOL         1 TEMP              0 ****  ****    0 ROOT
