@<TRIPOS>MOLECULE
MOL
  175   173     1     0     0
SMALL
resp


@<TRIPOS>ATOM
      1 C1          0.4040    4.0530    5.5570 c3        1 MOL     -0.352363
      2 C2         -0.0840    3.8690    4.1020 c         1 MOL      0.707918
      3 O1          0.6530    3.4590    3.2210 o         1 MOL     -0.545865
      4 H1         -0.0680    3.3070    6.1960 hc        1 MOL      0.083596
      5 H2          1.4860    3.9310    5.5960 hc        1 MOL      0.083596
      6 H3          0.1370    5.0500    5.9080 hc        1 MOL      0.083596
      7 N1         -1.4100    4.0510    3.9030 n         1 MOL     -0.642207
      8 C3         -2.1330    3.6700    2.6880 c3        1 MOL      0.249612
      9 C4         -2.0810    4.7730    1.6880 c         1 MOL      0.363711
     10 O2         -2.5800    5.8530    2.0280 o         1 MOL     -0.574717
     11 C5         -3.6040    3.2520    2.9490 c3        1 MOL     -0.277448
     12 C6         -4.3050    2.5080    1.8630 c         1 MOL      0.826395
     13 O3         -5.5030    2.1490    2.0350 o         1 MOL     -0.742737
     14 O4         -3.7250    2.2770    0.8420 o         1 MOL     -0.742737
     15 H4         -1.9770    4.3700    4.6850 hn        1 MOL      0.323072
     16 H5         -1.5100    2.8660    2.2910 h1        1 MOL      0.035728
     17 H6         -4.2160    4.1150    3.2070 hc        1 MOL      0.056116
     18 H7         -3.5080    2.6820    3.8740 hc        1 MOL      0.056116
     19 N2         -1.9530    4.5320    0.3520 n         1 MOL      0.005950
     20 C7         -1.9680    5.5290   -0.7270 c3        1 MOL     -0.016566
     21 C8         -2.8510    5.0790   -1.8580 c         1 MOL      0.599138
     22 O5         -2.7470    5.6480   -2.9290 o         1 MOL     -0.571087
     23 C9         -0.5120    5.8910   -1.0800 c3        1 MOL     -0.042922
     24 H8         -1.4090    3.6890    0.2570 hn        1 MOL      0.118044
     25 H9         -2.3920    6.4150   -0.2640 h1        1 MOL      0.033658
     26 H10         0.0710    4.9940   -1.2440 hc        1 MOL      0.014651
     27 H11        -0.3340    6.4880   -1.9700 hc        1 MOL      0.014651
     28 H12         0.0110    6.3800   -0.2560 hc        1 MOL      0.014651
     29 N3         -3.7220    4.0220   -1.6750 n         1 MOL     -0.445601
     30 C10        -4.6640    3.5940   -2.7190 c3        1 MOL     -0.003201
     31 C11        -5.9560    2.7690   -2.3010 c         1 MOL      0.448019
     32 O6         -6.7890    2.5160   -3.1790 o         1 MOL     -0.524455
     33 C12        -3.8570    2.6650   -3.7380 c3        1 MOL     -0.244712
     34 C13        -3.1980    1.4760   -2.9760 c         1 MOL      0.849660
     35 O7         -3.6810    0.9640   -1.9670 o         1 MOL     -0.726311
     36 O8         -2.1650    1.0440   -3.4750 o         1 MOL     -0.726311
     37 H13        -3.7400    3.6060   -0.7570 hn        1 MOL      0.159566
     38 H14        -5.0860    4.5140   -3.1290 h1        1 MOL      0.087348
     39 H15        -3.0540    3.2050   -4.2410 hc        1 MOL      0.063137
     40 H16        -4.5850    2.2620   -4.4340 hc        1 MOL      0.063137
     41 N4         -6.0730    2.3600   -0.9910 n         1 MOL     -0.309349
     42 C14        -7.2530    1.6420   -0.5320 c3        1 MOL     -0.307436
     43 C15        -7.3340    0.1800   -1.1360 c         1 MOL      0.476976
     44 O9         -8.3830   -0.4640   -1.0800 o         1 MOL     -0.583006
     45 H17        -5.3140    2.4310   -0.3400 hn        1 MOL      0.316566
     46 H18        -8.1180    2.2250   -0.8520 h1        1 MOL      0.155004
     47 H19        -7.3270    1.4760    0.5450 h1        1 MOL      0.155004
     48 N5         -6.2540   -0.3700   -1.7910 n         1 MOL     -0.225278
     49 C16        -6.2060   -1.7010   -2.4570 c3        1 MOL     -0.009520
     50 C17        -6.5020   -2.8170   -1.4020 c         1 MOL      0.487137
     51 O10        -6.9000   -3.9140   -1.7560 o         1 MOL     -0.558983
     52 C18        -4.9140   -1.9600   -3.2800 c3        1 MOL      0.020520
     53 C19        -3.6460   -2.2890   -2.5500 c         1 MOL      0.579176
     54 N6         -2.7080   -2.7130   -3.2940 n         1 MOL     -0.553485
     55 O11        -3.5060   -2.0690   -1.3170 o         1 MOL     -0.729947
     56 H20        -5.3720    0.1380   -1.7410 hn        1 MOL      0.224294
     57 H21        -6.9740   -1.7450   -3.2280 h1        1 MOL      0.074739
     58 H22        -4.6660   -1.0650   -3.8550 hc        1 MOL      0.001589
     59 H23        -5.1650   -2.7350   -4.0110 hc        1 MOL      0.001589
     60 H24        -2.7740   -2.9320   -4.2880 hn        1 MOL      0.313507
     61 H25        -1.7490   -2.6960   -2.9900 hn        1 MOL      0.313507
     62 N7         -6.2620   -2.5190   -0.0890 n         1 MOL     -0.190050
     63 C20        -6.4890   -3.5600    0.9220 c3        1 MOL     -0.219350
     64 C21        -5.2800   -4.3330    1.5460 c         1 MOL      0.518633
     65 O12        -5.3570   -5.1440    2.4870 o         1 MOL     -0.571384
     66 H26        -5.8960   -1.6340    0.2110 hn        1 MOL      0.195313
     67 H27        -7.1520   -4.2980    0.4810 h1        1 MOL      0.105778
     68 H28        -7.1090   -3.1090    1.7040 h1        1 MOL      0.105778
     69 N8         -4.0700   -4.0390    0.9520 n         1 MOL     -0.359706
     70 C22        -2.7470   -4.6270    1.3700 c3        1 MOL     -0.032023
     71 C23        -1.7510   -3.4660    1.6140 c         1 MOL      0.555758
     72 O13        -2.0190   -2.3010    1.2070 o         1 MOL     -0.573689
     73 C24        -2.2100   -5.5650    0.3470 c3        1 MOL      0.498876
     74 C25        -2.7110   -6.9830    0.3730 c3        1 MOL     -0.319065
     75 O14        -2.4480   -5.0640   -0.9920 oh        1 MOL     -0.615522
     76 H29        -4.0070   -3.1910    0.3970 hn        1 MOL      0.296588
     77 H30        -2.8400   -5.1030    2.3430 h1        1 MOL      0.063319
     78 H31        -1.1420   -5.6830    0.5320 h1        1 MOL     -0.051522
     79 H32        -2.2010   -4.1380   -0.9590 ho        1 MOL      0.332575
     80 H33        -3.7830   -7.1160    0.2460 hc        1 MOL      0.076861
     81 H34        -2.2780   -7.6150   -0.4130 hc        1 MOL      0.076861
     82 H35        -2.4610   -7.4310    1.3360 hc        1 MOL      0.076861
     83 N9         -0.6340   -3.7680    2.3070 n         1 MOL     -0.557742
     84 C26         0.5500   -2.9870    2.2970 c3        1 MOL      0.159199
     85 C27         1.3680   -3.2910    1.0130 c         1 MOL      0.488800
     86 O15         1.6350   -4.5000    0.7000 o         1 MOL     -0.557439
     87 C28         1.4410   -3.1310    3.5780 c3        1 MOL     -0.035723
     88 C29         0.9780   -2.1730    4.6820 c3        1 MOL      0.118719
     89 C30         2.9480   -2.8950    3.3660 c3        1 MOL     -0.250282
     90 C31         1.5340   -2.5220    6.0930 c3        1 MOL     -0.154066
     91 H36        -0.5000   -4.7440    2.5320 hn        1 MOL      0.281604
     92 H37         0.1600   -1.9800    2.1830 h1        1 MOL      0.026736
     93 H38         1.2500   -4.1040    4.0180 hc        1 MOL      0.034120
     94 H39        -0.0960   -2.0230    4.7080 hc        1 MOL     -0.017488
     95 H40         1.3940   -1.2200    4.3440 hc        1 MOL     -0.017488
     96 H41         3.1290   -1.8930    2.9900 hc        1 MOL      0.069004
     97 H42         3.6180   -3.0400    4.2050 hc        1 MOL      0.069004
     98 H43         3.2870   -3.5680    2.5780 hc        1 MOL      0.069004
     99 H44         0.9000   -2.0180    6.8250 hc        1 MOL      0.031741
    100 H45         1.2890   -3.5770    6.1610 hc        1 MOL      0.031741
    101 H46         2.6010   -2.3360    6.2310 hc        1 MOL      0.031741
    102 N10         1.7660   -2.1760    0.3110 n         1 MOL     -0.348286
    103 C32         2.6090   -2.1710   -0.9030 c3        1 MOL      0.205334
    104 C33         4.0510   -1.6970   -0.6630 c         1 MOL      0.475175
    105 O16         4.3580   -1.1080    0.3750 o         1 MOL     -0.401210
    106 C34         1.9190   -1.3570   -2.0310 c3        1 MOL     -0.368797
    107 C35         0.4670   -1.6220   -2.1970 c         1 MOL      0.872601
    108 O17        -0.3620   -0.9560   -1.5780 o         1 MOL     -0.716950
    109 O18         0.1580   -2.4890   -3.0230 o         1 MOL     -0.716950
    110 H47         1.4200   -1.2940    0.6490 hn        1 MOL      0.194707
    111 H48         2.6280   -3.1970   -1.2750 h1        1 MOL      0.026705
    112 H49         2.4520   -1.5090   -2.9680 hc        1 MOL      0.081404
    113 H50         2.1480   -0.3320   -1.7250 hc        1 MOL      0.081404
    114 N11         4.9490   -1.9890   -1.5700 n         1 MOL     -0.754108
    115 C36         6.3940   -1.6700   -1.2810 c3        1 MOL      0.512079
    116 C37         6.6620   -0.1980   -1.0150 c         1 MOL      0.292924
    117 O19         7.3520    0.0290    0.0050 o         1 MOL     -0.487493
    118 C38         7.2740   -2.2620   -2.3440 c3        1 MOL     -0.147329
    119 C39         8.7760   -1.9250   -2.1680 ca        1 MOL      0.023335
    120 C40         9.4260   -2.0730   -0.8850 ca        1 MOL     -0.168281
    121 C41         9.5280   -1.3540   -3.2490 ca        1 MOL     -0.168281
    122 C42        10.7840   -1.7040   -0.7500 ca        1 MOL     -0.066811
    123 C43        10.8720   -0.9240   -3.0650 ca        1 MOL     -0.066811
    124 C44        11.4800   -1.1800   -1.8430 ca        1 MOL     -0.156313
    125 H51         4.5970   -2.3550   -2.4410 hn        1 MOL      0.358725
    126 H52         6.6150   -2.1310   -0.3130 h1        1 MOL      0.022502
    127 H53         6.8620   -1.8860   -3.2770 hc        1 MOL      0.043977
    128 H54         7.1460   -3.3500   -2.2810 hc        1 MOL      0.043977
    129 H55         8.8250   -2.4380   -0.0610 ha        1 MOL      0.114890
    130 H56         9.0990   -1.2320   -4.2370 ha        1 MOL      0.114890
    131 H57        11.3310   -1.9590    0.1390 ha        1 MOL      0.103502
    132 H58        11.3630   -0.4580   -3.9060 ha        1 MOL      0.103502
    133 H59        12.5300   -0.9100   -1.7270 ha        1 MOL      0.103532
    134 N12         6.2570    0.8270   -1.7990 n         1 MOL      0.019492
    135 C45         6.6090    2.2180   -1.4440 c3        1 MOL     -0.101329
    136 C46         5.8190    2.7970   -0.2430 c         1 MOL      0.487777
    137 O20         6.1580    3.8720    0.2630 o         1 MOL     -0.531842
    138 C47         6.5580    3.0020   -2.7250 c3        1 MOL     -0.084703
    139 C48         5.8220    2.1290   -3.7470 c3        1 MOL     -0.034754
    140 C49         5.8060    0.7140   -3.1760 c3        1 MOL      0.020578
    141 H60         7.6270    2.1990   -1.0390 h1        1 MOL      0.084071
    142 H61         6.0970    3.9830   -2.5530 hc        1 MOL      0.048694
    143 H62         7.5370    3.2310   -3.1430 hc        1 MOL      0.048694
    144 H63         4.7850    2.4500   -3.8680 hc        1 MOL      0.037990
    145 H64         6.2220    2.1590   -4.7600 hc        1 MOL      0.037990
    146 H65         4.8290    0.2270   -3.2460 h1        1 MOL     -0.001530
    147 H66         6.5820    0.1080   -3.6290 h1        1 MOL     -0.001530
    148 N13         4.7970    2.1190    0.2310 n         1 MOL     -0.232462
    149 C50         4.1110    2.2250    1.6140 c3        1 MOL     -0.227109
    150 C51         5.0590    1.7380    2.6720 c         1 MOL      0.555864
    151 O21         5.4650    2.4880    3.5890 o         1 MOL     -0.553306
    152 C52         2.7420    1.5330    1.6260 c3        1 MOL     -0.004875
    153 C53         1.7830    2.0360    0.5010 c3        1 MOL      0.080230
    154 C54         0.4210    1.4130    0.5610 c         1 MOL      0.557655
    155 O22         0.1580    0.2750    1.0270 o         1 MOL     -0.681162
    156 O23        -0.4910    2.0580    0.0300 o         1 MOL     -0.681162
    157 H67         4.4260    1.3670   -0.3300 hn        1 MOL      0.200654
    158 H68         3.8810    3.2490    1.9060 h1        1 MOL      0.127336
    159 H69         2.2480    1.5930    2.5890 hc        1 MOL      0.028817
    160 H70         3.0340    0.4880    1.5070 hc        1 MOL      0.028817
    161 H71         2.3070    1.9480   -0.4440 hc        1 MOL      0.007137
    162 H72         1.6480    3.1040    0.6590 hc        1 MOL      0.007137
    163 N14         5.5020    0.4740    2.5450 n         1 MOL     -0.174919
    164 C55         6.5630   -0.1480    3.3550 c3        1 MOL     -0.288468
    165 H73         7.4460    0.4920    3.3490 h1        1 MOL      0.107512
    166 H74         6.2130   -0.2720    4.3800 h1        1 MOL      0.107512
    167 H75         6.8180   -1.1210    2.9370 h1        1 MOL      0.107512
    168 H76         5.1240   -0.1110    1.8050 hn        1 MOL      0.138376
    169 Ca1        -2.2570   -0.0510   -0.1460 Ca        1 MOL      1.711164
    170 O24        -1.9800    0.2030    2.6920 oh        1 MOL     -0.686804
    171 H77        -2.1730   -0.1320    3.5720 ho        1 MOL      0.354424
    172 H78        -1.0250    0.1890    2.6290 ho        1 MOL      0.354424
    173 O25        -4.6400   -0.5960    1.0660 oh        1 MOL     -0.686804
    174 H79        -4.5800   -1.0130    1.9300 ho        1 MOL      0.354424
    175 H80        -5.0690    0.2450    1.2390 ho        1 MOL      0.354424
@<TRIPOS>BOND
     1    1    2 1   
     2    1    4 1   
     3    1    5 1   
     4    1    6 1   
     5    2    3 2   
     6    2    7 1   
     7    7    8 1   
     8    7   15 1   
     9    8    9 1   
    10    8   11 1   
    11    8   16 1   
    12    9   10 2   
    13    9   19 1   
    14   11   12 1   
    15   11   17 1   
    16   11   18 1   
    17   12   13 1   
    18   12   14 1   
    19   19   20 1   
    20   19   24 1   
    21   20   21 1   
    22   20   23 1   
    23   20   25 1   
    24   21   22 2   
    25   21   29 1   
    26   23   26 1   
    27   23   27 1   
    28   23   28 1   
    29   29   30 1   
    30   29   37 1   
    31   30   31 1   
    32   30   33 1   
    33   30   38 1   
    34   31   32 2   
    35   31   41 1   
    36   33   34 1   
    37   33   39 1   
    38   33   40 1   
    39   34   35 1   
    40   34   36 1   
    41   41   42 1   
    42   41   45 1   
    43   42   43 1   
    44   42   46 1   
    45   42   47 1   
    46   43   44 2   
    47   43   48 1   
    48   48   49 1   
    49   48   56 1   
    50   49   50 1   
    51   49   52 1   
    52   49   57 1   
    53   50   51 2   
    54   50   62 1   
    55   52   53 1   
    56   52   58 1   
    57   52   59 1   
    58   53   54 1   
    59   53   55 2   
    60   54   60 1   
    61   54   61 1   
    62   62   63 1   
    63   62   66 1   
    64   63   64 1   
    65   63   67 1   
    66   63   68 1   
    67   64   65 2   
    68   64   69 1   
    69   69   70 1   
    70   69   76 1   
    71   70   71 1   
    72   70   73 1   
    73   70   77 1   
    74   71   72 2   
    75   71   83 1   
    76   73   74 1   
    77   73   75 1   
    78   73   78 1   
    79   74   80 1   
    80   74   81 1   
    81   74   82 1   
    82   75   79 1   
    83   83   84 1   
    84   83   91 1   
    85   84   85 1   
    86   84   87 1   
    87   84   92 1   
    88   85   86 2   
    89   85  102 1   
    90   87   88 1   
    91   87   89 1   
    92   87   93 1   
    93   88   90 1   
    94   88   94 1   
    95   88   95 1   
    96   89   96 1   
    97   89   97 1   
    98   89   98 1   
    99   90   99 1   
   100   90  100 1   
   101   90  101 1   
   102  102  103 1   
   103  102  110 1   
   104  103  104 1   
   105  103  106 1   
   106  103  111 1   
   107  104  105 2   
   108  104  114 1   
   109  106  107 1   
   110  106  112 1   
   111  106  113 1   
   112  107  108 1   
   113  107  109 1   
   114  114  115 1   
   115  114  125 1   
   116  115  116 1   
   117  115  118 1   
   118  115  126 1   
   119  116  117 2   
   120  116  134 1   
   121  118  119 1   
   122  118  127 1   
   123  118  128 1   
   124  119  120 ar  
   125  119  121 ar  
   126  120  122 ar  
   127  120  129 1   
   128  121  123 ar  
   129  121  130 1   
   130  122  124 ar  
   131  122  131 1   
   132  123  124 ar  
   133  123  132 1   
   134  124  133 1   
   135  134  135 1   
   136  134  140 1   
   137  135  136 1   
   138  135  138 1   
   139  135  141 1   
   140  136  137 2   
   141  136  148 1   
   142  138  139 1   
   143  138  142 1   
   144  138  143 1   
   145  139  140 1   
   146  139  144 1   
   147  139  145 1   
   148  140  146 1   
   149  140  147 1   
   150  148  149 1   
   151  148  157 1   
   152  149  150 1   
   153  149  152 1   
   154  149  158 1   
   155  150  151 2   
   156  150  163 1   
   157  152  153 1   
   158  152  159 1   
   159  152  160 1   
   160  153  154 1   
   161  153  161 1   
   162  153  162 1   
   163  154  155 1   
   164  154  156 1   
   165  163  164 1   
   166  163  168 1   
   167  164  165 1   
   168  164  166 1   
   169  164  167 1   
   170  170  171 1   
   171  170  172 1   
   172  173  174 1   
   173  173  175 1   
@<TRIPOS>SUBSTRUCTURE
     1 MOL         1 TEMP              0 ****  ****    0 ROOT
