@<TRIPOS>MOLECULE
MOL
  189   185     1     0     0
SMALL
resp


@<TRIPOS>ATOM
      1 C1         -0.1160    3.3160   -4.3310 c3        1 MOL     -0.330252
      2 C2          0.6090    2.9570   -3.0130 c         1 MOL      0.607395
      3 O1          0.1680    3.3840   -1.9250 o         1 MOL     -0.613631
      4 H1         -1.1890    3.3770   -4.1500 hc        1 MOL      0.085602
      5 H2          0.2450    4.2780   -4.6950 hc        1 MOL      0.085602
      6 H3          0.0830    2.5470   -5.0780 hc        1 MOL      0.085602
      7 N1          1.6710    2.1400   -3.0610 n         1 MOL     -0.474384
      8 C3          2.5390    1.8090   -1.9260 c3        1 MOL      0.357987
      9 C4          3.5640    2.8900   -1.6230 c         1 MOL      0.182462
     10 O2          4.7390    2.7970   -1.9860 o         1 MOL     -0.455438
     11 C5          3.1390    0.4490   -2.2490 c3        1 MOL     -0.287840
     12 C6          4.0080   -0.0920   -1.1100 c         1 MOL      0.433427
     13 O3          3.5430    0.0770    0.0360 o         1 MOL     -0.532195
     14 O4          5.0970   -0.5670   -1.4850 o         1 MOL     -0.532195
     15 H4          2.0100    1.8390   -3.9620 hn        1 MOL      0.271306
     16 H5          1.9480    1.6120   -1.0320 h1        1 MOL      0.031922
     17 H6          3.7020    0.4210   -3.1820 hc        1 MOL      0.075719
     18 H7          2.3020   -0.2360   -2.3660 hc        1 MOL      0.075719
     19 N2          3.1310    3.9100   -0.9090 n         1 MOL     -0.193629
     20 C7          3.9910    4.9940   -0.5320 c3        1 MOL     -0.023691
     21 C8          4.8400    4.5330    0.7110 c         1 MOL      0.328471
     22 O5          5.7980    5.1760    1.0160 o         1 MOL     -0.498389
     23 C9          3.0430    6.1750   -0.1720 c3        1 MOL      0.017770
     24 C10         2.1750    6.6420   -1.3830 c3        1 MOL     -0.155244
     25 C11         1.3130    7.9150   -1.0270 c3        1 MOL      0.078669
     26 C12         0.5830    8.6620   -2.1390 c3        1 MOL     -0.064462
     27 N3         -0.6150    7.8600   -2.6630 n4        1 MOL     -0.443482
     28 H8          2.1790    3.8690   -0.5740 hn        1 MOL      0.285955
     29 H9          4.6040    5.2930   -1.3830 h1        1 MOL      0.115620
     30 H10         3.6710    7.0070    0.1670 hc        1 MOL      0.031197
     31 H11         2.3410    5.9130    0.6260 hc        1 MOL      0.031197
     32 H12         1.6350    5.7900   -1.8130 hc        1 MOL      0.036895
     33 H13         2.9340    6.9120   -2.1250 hc        1 MOL      0.036895
     34 H14         1.9400    8.6220   -0.4880 hc        1 MOL      0.038022
     35 H15         0.5670    7.7340   -0.2480 hc        1 MOL      0.038022
     36 H16         1.2890    8.7790   -2.9600 hx        1 MOL      0.101521
     37 H17         0.1560    9.5960   -1.7720 hx        1 MOL      0.101521
     38 H18        -0.2930    7.1790   -3.3370 hn        1 MOL      0.359027
     39 H19        -1.1060    7.5620   -1.8360 hn        1 MOL      0.359027
     40 H20        -1.1480    8.5200   -3.2030 hn        1 MOL      0.359027
     41 N4          4.5030    3.4180    1.4250 n         1 MOL      0.014257
     42 C13         5.1690    2.9790    2.6700 c3        1 MOL     -0.260017
     43 C14         6.4990    2.3350    2.2220 c         1 MOL      0.549318
     44 O6          7.5210    2.4750    2.8270 o         1 MOL     -0.539254
     45 C15         4.2850    1.8590    3.3510 c3        1 MOL     -0.052676
     46 C16         2.8520    2.1560    3.3860 c         1 MOL      0.638334
     47 O7          2.1300    1.2110    3.0090 o         1 MOL     -0.665886
     48 O8          2.4430    3.3200    3.5190 o         1 MOL     -0.665886
     49 H21         3.6190    2.9890    1.1940 hn        1 MOL      0.103821
     50 H22         5.2400    3.8430    3.3360 h1        1 MOL      0.127267
     51 H23         4.6780    1.5800    4.3230 hc        1 MOL      0.026847
     52 H24         4.4200    1.0290    2.6650 hc        1 MOL      0.026847
     53 N5          6.5160    1.6720    1.0510 n         1 MOL     -0.144275
     54 C17         7.6470    0.9450    0.4530 c3        1 MOL     -0.431070
     55 C18         7.8050   -0.4940    0.9970 c         1 MOL      0.583963
     56 O9          8.9110   -0.9820    1.2700 o         1 MOL     -0.565539
     57 H25         5.6610    1.6950    0.5250 hn        1 MOL      0.182893
     58 H26         8.5250    1.5080    0.7680 h1        1 MOL      0.171528
     59 H27         7.5300    0.9260   -0.6270 h1        1 MOL      0.171528
     60 N6          6.6410   -1.1270    1.1520 n         1 MOL     -0.222783
     61 C19         6.5670   -2.4970    1.5570 c3        1 MOL     -0.070852
     62 C20         6.4390   -3.5470    0.4940 c         1 MOL      0.362859
     63 O10         6.6980   -4.7290    0.6980 o         1 MOL     -0.525468
     64 C21         5.4890   -2.6240    2.6310 c3        1 MOL     -0.220558
     65 C22         4.0750   -2.3470    2.2050 c         1 MOL      0.766815
     66 O11         3.5390   -2.9120    1.2040 o         1 MOL     -0.725459
     67 O12         3.3990   -1.7410    3.0220 o         1 MOL     -0.725459
     68 H28         5.7910   -0.7360    0.7720 hn        1 MOL      0.158609
     69 H29         7.4820   -2.7700    2.0920 h1        1 MOL      0.120696
     70 H30         5.7700   -2.0440    3.5010 hc        1 MOL      0.075639
     71 H31         5.4250   -3.6590    2.9630 hc        1 MOL      0.075639
     72 N7          6.1750   -3.1410   -0.7340 n         1 MOL     -0.083552
     73 C23         6.1060   -3.9840   -1.8700 c3        1 MOL     -0.125454
     74 C24         4.6960   -4.5440   -2.1580 c         1 MOL      0.608563
     75 O13         4.5160   -5.4790   -2.9670 o         1 MOL     -0.603032
     76 H32         6.0250   -2.1520   -0.9220 hn        1 MOL      0.147872
     77 H33         6.7740   -4.8490   -1.8560 h1        1 MOL      0.075019
     78 H34         6.3320   -3.4010   -2.7560 h1        1 MOL      0.075019
     79 N8          3.6290   -4.0710   -1.4760 n         1 MOL     -0.456387
     80 C25         2.2790   -4.5890   -1.5210 c3        1 MOL      0.036131
     81 C26         1.2140   -3.4460   -1.4330 c         1 MOL      0.479493
     82 O14         1.3650   -2.4110   -0.7190 o         1 MOL     -0.510260
     83 C27         2.0150   -5.5670   -0.3510 c3        1 MOL      0.586745
     84 C28         1.9490   -7.0040   -0.8510 c3        1 MOL     -0.224979
     85 O15         2.9670   -5.5170    0.6750 oh        1 MOL     -0.686978
     86 H35         3.7960   -3.4200   -0.7160 hn        1 MOL      0.295652
     87 H36         2.0850   -5.1240   -2.4460 h1        1 MOL      0.054117
     88 H37         1.0580   -5.2230    0.0700 h1        1 MOL     -0.147039
     89 H38         3.1650   -4.5990    0.8500 ho        1 MOL      0.437131
     90 H39         1.1950   -7.0280   -1.6300 hc        1 MOL      0.042375
     91 H40         2.8820   -7.3930   -1.2610 hc        1 MOL      0.042375
     92 H41         1.6160   -7.6730   -0.0590 hc        1 MOL      0.042375
     93 N9          0.0510   -3.6340   -2.1120 n         1 MOL     -0.501620
     94 C29        -1.0550   -2.6720   -2.2640 c3        1 MOL     -0.000454
     95 C30        -2.3130   -3.3160   -1.7470 c         1 MOL      0.285010
     96 O16        -2.8090   -4.4040   -2.1550 o         1 MOL     -0.518575
     97 C31        -1.3080   -2.3000   -3.7310 c3        1 MOL      0.194932
     98 C32        -0.0730   -1.7780   -4.4850 c3        1 MOL      0.013386
     99 C33        -2.4590   -1.1680   -3.7150 c3        1 MOL     -0.300286
    100 C34        -0.3270   -1.4640   -5.9430 c3        1 MOL     -0.029475
    101 H42        -0.1000   -4.3990   -2.7510 hn        1 MOL      0.294021
    102 H43        -0.7500   -1.7710   -1.7310 h1        1 MOL      0.158722
    103 H44        -1.6560   -3.1590   -4.2980 hc        1 MOL     -0.008804
    104 H45         0.7900   -2.4260   -4.3330 hc        1 MOL     -0.008517
    105 H46         0.1180   -0.8090   -4.0190 hc        1 MOL     -0.008517
    106 H47        -3.3720   -1.5390   -3.2540 hc        1 MOL      0.047365
    107 H48        -2.0640   -0.3290   -3.1490 hc        1 MOL      0.047365
    108 H49        -2.7580   -0.7850   -4.6860 hc        1 MOL      0.047365
    109 H50        -0.4680   -2.4090   -6.4670 hc        1 MOL      0.009001
    110 H51        -1.2270   -0.8760   -6.1120 hc        1 MOL      0.009001
    111 H52         0.4890   -0.9840   -6.4840 hc        1 MOL      0.009001
    112 N10        -3.0120   -2.6220   -0.8230 n         1 MOL      0.162937
    113 C35        -4.2430   -3.0690   -0.0610 c3        1 MOL     -0.305246
    114 C36        -5.4830   -2.1040   -0.3630 c         1 MOL      0.439465
    115 O17        -5.2990   -1.0070   -0.9010 o         1 MOL     -0.418848
    116 C37        -4.0070   -3.0120    1.4540 c3        1 MOL      0.391110
    117 C38        -2.7670   -3.8790    1.9790 c3        1 MOL     -0.395743
    118 O18        -3.7390   -1.6550    1.8780 oh        1 MOL     -0.691992
    119 H53        -2.5630   -1.8080   -0.4210 hn        1 MOL      0.071043
    120 H54        -4.4610   -4.0870   -0.3760 h1        1 MOL      0.106153
    121 H55        -4.8570   -3.4250    1.9940 h1        1 MOL      0.007041
    122 H56        -2.8180   -1.5820    1.6480 ho        1 MOL      0.415448
    123 H57        -1.8440   -3.7860    1.4100 hc        1 MOL      0.109690
    124 H58        -2.6260   -3.7180    3.0520 hc        1 MOL      0.109690
    125 H59        -2.8930   -4.9480    1.8530 hc        1 MOL      0.109690
    126 N11        -6.7140   -2.4760    0.0260 n         1 MOL     -0.161038
    127 C39        -7.9440   -1.8520   -0.5500 c3        1 MOL     -0.411785
    128 C40        -8.0350   -0.3250   -0.4400 c         1 MOL      0.490865
    129 O19        -8.6370    0.3710   -1.2050 o         1 MOL     -0.510088
    130 C41        -9.2680   -2.4230    0.0500 c3        1 MOL      0.416272
    131 C42        -9.4940   -3.8900   -0.1500 c3        1 MOL     -0.411693
    132 O20        -9.2580   -2.1990    1.4000 oh        1 MOL     -0.655551
    133 H60        -6.9050   -3.3510    0.4880 hn        1 MOL      0.235100
    134 H61        -7.8390   -2.1130   -1.6030 h1        1 MOL      0.189634
    135 H62       -10.1090   -1.8330   -0.3260 h1        1 MOL      0.033721
    136 H63       -10.1580   -2.1940    1.7400 ho        1 MOL      0.420477
    137 H64        -8.6380   -4.4550    0.2280 hc        1 MOL      0.115151
    138 H65       -10.4190   -4.1600    0.3600 hc        1 MOL      0.115151
    139 H66        -9.5610   -4.0640   -1.2170 hc        1 MOL      0.115151
    140 N12        -7.3200    0.2020    0.5950 n         1 MOL     -0.061844
    141 C43        -7.3920    1.5980    1.0040 c3        1 MOL     -0.329153
    142 C44        -6.2180    2.4270    0.5470 c         1 MOL      0.507473
    143 O21        -6.3480    3.6610    0.4580 o         1 MOL     -0.519669
    144 C45        -7.5890    1.6710    2.5220 c3        1 MOL     -0.042002
    145 C46        -6.4240    1.2120    3.3590 c3        1 MOL      0.113674
    146 C47        -6.7550    1.4540    4.8470 c3        1 MOL     -0.066662
    147 C48        -5.6470    0.9850    5.7580 c3        1 MOL      0.090441
    148 N13        -6.0030    1.3230    7.1390 n4        1 MOL     -0.226877
    149 H67        -7.0380   -0.4820    1.2820 hn        1 MOL      0.158361
    150 H68        -8.3410    1.9020    0.5410 h1        1 MOL      0.179995
    151 H69        -8.5280    1.1840    2.7920 hc        1 MOL      0.040249
    152 H70        -7.7270    2.6950    2.8710 hc        1 MOL      0.040249
    153 H71        -5.4550    1.6630    3.1230 hc        1 MOL     -0.000568
    154 H72        -6.3740    0.1340    3.2470 hc        1 MOL     -0.000568
    155 H73        -7.6800    0.9370    5.0860 hc        1 MOL      0.020082
    156 H74        -6.8720    2.5190    5.0310 hc        1 MOL      0.020082
    157 H75        -4.6530    1.3410    5.5000 hx        1 MOL      0.074569
    158 H76        -5.5890   -0.1010    5.7090 hx        1 MOL      0.074569
    159 H77        -5.1910    1.2730    7.7350 hn        1 MOL      0.266410
    160 H78        -6.4070    2.2520    7.1920 hn        1 MOL      0.266410
    161 H79        -6.8210    0.8120    7.4510 hn        1 MOL      0.266410
    162 N14        -5.1680    1.7320    0.0450 n         1 MOL     -0.092245
    163 C49        -4.1420    2.3780   -0.7350 c3        1 MOL     -0.488509
    164 C50        -4.7300    2.7820   -2.1010 c         1 MOL      0.709288
    165 O22        -4.5870    3.9090   -2.5360 o         1 MOL     -0.574710
    166 C51        -2.9190    1.4980   -0.8800 c3        1 MOL      0.109887
    167 C52        -2.3400    1.0880    0.5260 c3        1 MOL      0.034162
    168 C53        -1.0720    0.2070    0.5510 c         1 MOL      0.891518
    169 O23        -1.1330   -0.9770    0.9980 o         1 MOL     -0.863794
    170 O24         0.0470    0.6520    0.1730 o         1 MOL     -0.863794
    171 H80        -5.1490    0.7300    0.1320 hn        1 MOL      0.129203
    172 H81        -3.8600    3.2650   -0.1790 h1        1 MOL      0.167997
    173 H82        -2.1670    2.1040   -1.3930 hc        1 MOL      0.021178
    174 H83        -3.1390    0.6080   -1.4710 hc        1 MOL      0.021178
    175 H84        -3.0840    0.5800    1.1440 hc        1 MOL     -0.008306
    176 H85        -2.0850    1.9660    1.1180 hc        1 MOL     -0.008306
    177 N15        -5.4310    1.8010   -2.7050 n         1 MOL     -0.325997
    178 C54        -6.2540    2.0680   -3.9340 c3        1 MOL     -0.353139
    179 H86        -7.3090    2.1060   -3.6630 h1        1 MOL      0.139783
    180 H87        -5.9580    3.0220   -4.3700 h1        1 MOL      0.139783
    181 H88        -6.0940    1.2710   -4.6590 h1        1 MOL      0.139783
    182 H89        -5.4790    0.8700   -2.3080 hn        1 MOL      0.299879
    183 Ca1         1.5640   -0.8110    1.5060 Ca        1 MOL      1.701542
    184 O25         0.8100   -3.2030    2.5750 oh        1 MOL     -0.794410
    185 H90         0.2030   -3.9480    2.5990 ho        1 MOL      0.381618
    186 H91         1.6400   -3.5620    2.8780 ho        1 MOL      0.381618
    187 O26        -0.0320   -0.2300    3.6140 oh        1 MOL     -0.794410
    188 H92        -0.9760   -0.2230    3.7850 ho        1 MOL      0.381618
    189 H93         0.3280   -0.8080    4.2790 ho        1 MOL      0.381618
@<TRIPOS>BOND
     1    1    2 1   
     2    1    4 1   
     3    1    5 1   
     4    1    6 1   
     5    2    3 2   
     6    2    7 1   
     7    7    8 1   
     8    7   15 1   
     9    8    9 1   
    10    8   11 1   
    11    8   16 1   
    12    9   10 2   
    13    9   19 1   
    14   11   12 1   
    15   11   17 1   
    16   11   18 1   
    17   12   13 1   
    18   12   14 1   
    19   19   20 1   
    20   19   28 1   
    21   20   21 1   
    22   20   23 1   
    23   20   29 1   
    24   21   22 2   
    25   21   41 1   
    26   23   24 1   
    27   23   30 1   
    28   23   31 1   
    29   24   25 1   
    30   24   32 1   
    31   24   33 1   
    32   25   26 1   
    33   25   34 1   
    34   25   35 1   
    35   26   27 1   
    36   26   36 1   
    37   26   37 1   
    38   27   38 1   
    39   27   39 1   
    40   27   40 1   
    41   41   42 1   
    42   41   49 1   
    43   42   43 1   
    44   42   45 1   
    45   42   50 1   
    46   43   44 2   
    47   43   53 1   
    48   45   46 1   
    49   45   51 1   
    50   45   52 1   
    51   46   47 1   
    52   46   48 1   
    53   53   54 1   
    54   53   57 1   
    55   54   55 1   
    56   54   58 1   
    57   54   59 1   
    58   55   56 2   
    59   55   60 1   
    60   60   61 1   
    61   60   68 1   
    62   61   62 1   
    63   61   64 1   
    64   61   69 1   
    65   62   63 2   
    66   62   72 1   
    67   64   65 1   
    68   64   70 1   
    69   64   71 1   
    70   65   66 1   
    71   65   67 1   
    72   72   73 1   
    73   72   76 1   
    74   73   74 1   
    75   73   77 1   
    76   73   78 1   
    77   74   75 2   
    78   74   79 1   
    79   79   80 1   
    80   79   86 1   
    81   80   81 1   
    82   80   83 1   
    83   80   87 1   
    84   81   82 2   
    85   81   93 1   
    86   83   84 1   
    87   83   85 1   
    88   83   88 1   
    89   84   90 1   
    90   84   91 1   
    91   84   92 1   
    92   85   89 1   
    93   93   94 1   
    94   93  101 1   
    95   94   95 1   
    96   94   97 1   
    97   94  102 1   
    98   95   96 2   
    99   95  112 1   
   100   97   98 1   
   101   97   99 1   
   102   97  103 1   
   103   98  100 1   
   104   98  104 1   
   105   98  105 1   
   106   99  106 1   
   107   99  107 1   
   108   99  108 1   
   109  100  109 1   
   110  100  110 1   
   111  100  111 1   
   112  112  113 1   
   113  112  119 1   
   114  113  114 1   
   115  113  116 1   
   116  113  120 1   
   117  114  115 2   
   118  114  126 1   
   119  116  117 1   
   120  116  118 1   
   121  116  121 1   
   122  117  123 1   
   123  117  124 1   
   124  117  125 1   
   125  118  122 1   
   126  126  127 1   
   127  126  133 1   
   128  127  128 1   
   129  127  130 1   
   130  127  134 1   
   131  128  129 2   
   132  128  140 1   
   133  130  131 1   
   134  130  132 1   
   135  130  135 1   
   136  131  137 1   
   137  131  138 1   
   138  131  139 1   
   139  132  136 1   
   140  140  141 1   
   141  140  149 1   
   142  141  142 1   
   143  141  144 1   
   144  141  150 1   
   145  142  143 2   
   146  142  162 1   
   147  144  145 1   
   148  144  151 1   
   149  144  152 1   
   150  145  146 1   
   151  145  153 1   
   152  145  154 1   
   153  146  147 1   
   154  146  155 1   
   155  146  156 1   
   156  147  148 1   
   157  147  157 1   
   158  147  158 1   
   159  148  159 1   
   160  148  160 1   
   161  148  161 1   
   162  162  163 1   
   163  162  171 1   
   164  163  164 1   
   165  163  166 1   
   166  163  172 1   
   167  164  165 2   
   168  164  177 1   
   169  166  167 1   
   170  166  173 1   
   171  166  174 1   
   172  167  168 1   
   173  167  175 1   
   174  167  176 1   
   175  168  169 1   
   176  168  170 1   
   177  177  178 1   
   178  177  182 1   
   179  178  179 1   
   180  178  180 1   
   181  178  181 1   
   182  184  185 1   
   183  184  186 1   
   184  187  188 1   
   185  187  189 1   
@<TRIPOS>SUBSTRUCTURE
     1 MOL         1 TEMP              0 ****  ****    0 ROOT
