@<TRIPOS>MOLECULE
MOL
  172   171     1     0     0
SMALL
resp


@<TRIPOS>ATOM
      1 C1         -0.3610    4.1910    5.5380 c3        1 MOL     -0.342946
      2 C2         -0.7810    3.8160    4.1040 c         1 MOL      0.659635
      3 O1         -0.0560    4.1720    3.1500 o         1 MOL     -0.545716
      4 H1         -0.9740    5.0210    5.8900 hc        1 MOL      0.084501
      5 H2         -0.5010    3.3320    6.1950 hc        1 MOL      0.084501
      6 H3          0.6890    4.4870    5.5440 hc        1 MOL      0.084501
      7 N1         -2.0440    3.3440    3.9170 n         1 MOL     -0.586297
      8 C3         -2.4570    2.7410    2.5750 c3        1 MOL      0.113332
      9 C4         -2.7600    3.9020    1.6610 c         1 MOL      0.567291
     10 O2         -3.7510    4.6080    1.9560 o         1 MOL     -0.584095
     11 C5         -3.6770    1.7910    2.8060 c3        1 MOL     -0.158363
     12 C6         -4.0130    0.8850    1.6450 c         1 MOL      0.866176
     13 O3         -3.3290    0.9080    0.5280 o         1 MOL     -0.795423
     14 O4         -5.0040    0.0980    1.8150 o         1 MOL     -0.795423
     15 H4         -2.6260    3.2010    4.7310 hn        1 MOL      0.304909
     16 H5         -1.5960    2.1540    2.2730 h1        1 MOL      0.048664
     17 H6         -4.5710    2.3390    3.1060 hc        1 MOL      0.058367
     18 H7         -3.4400    1.0670    3.5770 hc        1 MOL      0.058367
     19 N2         -1.9500    4.0920    0.5560 n         1 MOL     -0.402637
     20 C7         -2.1490    5.2530   -0.2930 c3        1 MOL      0.274376
     21 C8         -3.1620    5.0360   -1.3490 c         1 MOL      0.428083
     22 O5         -3.5870    5.9550   -2.0040 o         1 MOL     -0.569211
     23 C9         -0.8080    5.7860   -0.7520 c3        1 MOL     -0.249881
     24 H8         -1.2160    3.4220    0.3840 hn        1 MOL      0.322166
     25 H9         -2.5310    6.0820    0.2980 h1        1 MOL      0.007177
     26 H10        -0.2390    5.0060   -1.2600 hc        1 MOL      0.059298
     27 H11        -0.9220    6.6390   -1.4190 hc        1 MOL      0.059298
     28 H12        -0.2800    6.0240    0.1620 hc        1 MOL      0.059298
     29 N3         -3.6640    3.7880   -1.5350 n         1 MOL     -0.323207
     30 C10        -4.7590    3.5460   -2.4640 c3        1 MOL      0.166566
     31 C11        -5.9170    2.8080   -1.7830 c         1 MOL      0.415206
     32 O6         -7.0190    2.7080   -2.3590 o         1 MOL     -0.584719
     33 C12        -4.2740    2.9290   -3.8190 c3        1 MOL     -0.238233
     34 C13        -3.5480    1.5930   -3.6870 c         1 MOL      0.781004
     35 O7         -3.4470    1.1010   -2.6000 o         1 MOL     -0.738171
     36 O8         -3.0870    0.9700   -4.6650 o         1 MOL     -0.738171
     37 H13        -3.0790    3.0400   -1.1710 hn        1 MOL      0.215767
     38 H14        -5.2300    4.5280   -2.5980 h1        1 MOL      0.054578
     39 H15        -3.6210    3.6930   -4.2480 hc        1 MOL      0.039526
     40 H16        -5.1740    2.8300   -4.4190 hc        1 MOL      0.039526
     41 N4         -5.7160    2.3700   -0.5570 n         1 MOL     -0.035727
     42 C14        -6.7680    1.9310    0.3330 c3        1 MOL     -0.317260
     43 C15        -7.3170    0.5420   -0.0280 c         1 MOL      0.614287
     44 O9         -8.2140   -0.0120    0.6070 o         1 MOL     -0.635274
     45 H17        -4.7740    2.3690   -0.1850 hn        1 MOL     -0.017346
     46 H18        -7.4890    2.6890    0.0580 h1        1 MOL      0.127267
     47 H19        -6.4190    1.9870    1.3610 h1        1 MOL      0.127267
     48 N5         -6.6790   -0.1090   -0.9130 n         1 MOL     -0.326889
     49 C16        -6.9620   -1.4620   -1.4290 c3        1 MOL     -0.084021
     50 C17        -6.8960   -2.5920   -0.3810 c         1 MOL      0.447901
     51 O10        -7.2740   -3.7580   -0.6820 o         1 MOL     -0.563462
     52 C18        -6.0680   -1.7070   -2.6750 c3        1 MOL     -0.302024
     53 C19        -4.6400   -2.1270   -2.3110 c         1 MOL      0.570862
     54 N6         -4.0640   -3.0630   -3.0200 n         1 MOL     -0.647673
     55 O11        -4.0680   -1.7230   -1.3140 o         1 MOL     -0.538657
     56 H20        -5.8010    0.3000   -1.1840 hn        1 MOL      0.307941
     57 H21        -8.0090   -1.4230   -1.7410 h1        1 MOL      0.122983
     58 H22        -6.1460   -0.7830   -3.2510 hc        1 MOL      0.123105
     59 H23        -6.4660   -2.4830   -3.3360 hc        1 MOL      0.123105
     60 H24        -4.6490   -3.5350   -3.6980 hn        1 MOL      0.329370
     61 H25        -3.0890   -3.2690   -2.8970 hn        1 MOL      0.329370
     62 N7         -6.3760   -2.2870    0.8530 n         1 MOL     -0.135388
     63 C20        -6.2540   -3.1510    1.9690 c3        1 MOL     -0.285346
     64 C21        -5.0400   -4.1080    1.9090 c         1 MOL      0.541337
     65 O12        -5.0200   -5.0810    2.7240 o         1 MOL     -0.594525
     66 H26        -6.0410   -1.3490    1.0040 hn        1 MOL      0.362910
     67 H27        -7.1900   -3.6900    2.0840 h1        1 MOL      0.121648
     68 H28        -6.2150   -2.5110    2.8550 h1        1 MOL      0.121648
     69 N8         -4.0540   -3.7260    1.1390 n         1 MOL     -0.219537
     70 C22        -2.6790   -4.3430    1.2440 c3        1 MOL     -0.125131
     71 C23        -1.6220   -3.2100    1.2700 c         1 MOL      0.709294
     72 O13        -1.8570   -2.0930    0.8160 o         1 MOL     -0.670848
     73 C24        -2.3740   -5.3540    0.1220 c3        1 MOL      0.369764
     74 C25        -3.3220   -6.4920    0.1240 c3        1 MOL     -0.306573
     75 O14        -2.3740   -4.7860   -1.1720 oh        1 MOL     -0.625740
     76 H29        -4.2370   -2.9700    0.4970 hn        1 MOL      0.184322
     77 H30        -2.5450   -4.8860    2.1840 h1        1 MOL      0.063684
     78 H31        -1.4080   -5.7230    0.4440 h1        1 MOL      0.008794
     79 H32        -3.2210   -4.9820   -1.5860 ho        1 MOL      0.380203
     80 H33        -3.6520   -6.8350    1.1020 hc        1 MOL      0.077276
     81 H34        -4.2150   -6.1840   -0.4110 hc        1 MOL      0.077276
     82 H35        -2.8680   -7.3740   -0.3180 hc        1 MOL      0.077276
     83 N9         -0.4530   -3.5610    1.8090 n         1 MOL     -0.441887
     84 C26         0.8200   -2.7920    1.8250 c3        1 MOL      0.024823
     85 C27         1.6070   -2.9890    0.4800 c         1 MOL      0.471608
     86 O15         1.9830   -4.1110    0.1830 o         1 MOL     -0.587466
     87 C28         1.6580   -2.9850    3.0990 c3        1 MOL      0.064788
     88 C29         0.7930   -2.8550    4.4100 c3        1 MOL      0.153909
     89 C30         2.9750   -2.2450    3.1010 c3        1 MOL      0.011223
     90 C31         0.3490   -1.4100    4.7390 c3        1 MOL     -0.189926
     91 H36        -0.2930   -4.5040    2.1270 hn        1 MOL      0.263254
     92 H37         0.6980   -1.7080    1.8760 h1        1 MOL      0.127565
     93 H38         2.0410   -3.9940    3.1850 hc        1 MOL     -0.042237
     94 H39         1.4540   -3.2310    5.1910 hc        1 MOL     -0.044851
     95 H40        -0.0590   -3.5310    4.3400 hc        1 MOL     -0.044851
     96 H41         3.5590   -2.6600    2.2820 hc        1 MOL     -0.010570
     97 H42         2.8170   -1.1880    2.8760 hc        1 MOL     -0.010570
     98 H43         3.6140   -2.2320    3.9900 hc        1 MOL     -0.010570
     99 H44        -0.2160   -1.5070    5.6660 hc        1 MOL      0.032413
    100 H45         1.2240   -0.7800    4.9270 hc        1 MOL      0.032413
    101 H46        -0.2360   -0.9880    3.9320 hc        1 MOL      0.032413
    102 N10         1.9500   -1.9400   -0.2500 n         1 MOL     -0.180192
    103 C32         2.9900   -1.8290   -1.3260 c3        1 MOL     -0.010799
    104 C33         4.3390   -1.4770   -0.7660 c         1 MOL      0.559713
    105 O16         4.4100   -1.0680    0.3960 o         1 MOL     -0.368230
    106 C34         2.5640   -0.8050   -2.4380 c3        1 MOL     -0.433753
    107 C35         1.1900   -1.0830   -3.0210 c         1 MOL      0.896689
    108 O17         1.0140   -2.0800   -3.7350 o         1 MOL     -0.725780
    109 O18         0.2860   -0.2470   -2.8680 o         1 MOL     -0.725780
    110 H47         1.5390   -1.0540    0.0280 hn        1 MOL      0.110744
    111 H48         3.1000   -2.7980   -1.8000 h1        1 MOL      0.055700
    112 H49         3.2490   -0.8630   -3.2910 hc        1 MOL      0.131660
    113 H50         2.5460    0.2190   -2.0510 hc        1 MOL      0.131660
    114 N11         5.3840   -1.5810   -1.5700 n         1 MOL     -0.624888
    115 C36         6.6850   -1.2930   -1.0660 c3        1 MOL      0.394234
    116 C37         6.9030    0.1670   -0.7030 c         1 MOL      0.364655
    117 O19         7.4130    0.4340    0.3460 o         1 MOL     -0.498055
    118 C38         7.6340   -2.0100   -2.0140 c3        1 MOL     -0.196695
    119 C39         9.0780   -1.7530   -1.6350 ca        1 MOL      0.054112
    120 C40         9.6550   -0.5460   -2.0060 ca        1 MOL     -0.126971
    121 C41         9.8620   -2.6820   -0.9430 ca        1 MOL     -0.126971
    122 C42        10.9990   -0.2650   -1.6460 ca        1 MOL     -0.151288
    123 C43        11.1480   -2.3600   -0.4480 ca        1 MOL     -0.151288
    124 C44        11.6940   -1.1100   -0.8310 ca        1 MOL     -0.065606
    125 H51         5.2550   -1.8870   -2.5290 hn        1 MOL      0.323875
    126 H52         6.6980   -1.7700   -0.0830 h1        1 MOL      0.000994
    127 H53         7.4070   -1.7430   -3.0440 hc        1 MOL      0.065119
    128 H54         7.3550   -3.0620   -1.9930 hc        1 MOL      0.065119
    129 H55         9.1460    0.1660   -2.6520 ha        1 MOL      0.106354
    130 H56         9.4770   -3.6600   -0.6730 ha        1 MOL      0.106354
    131 H57        11.4520    0.6750   -1.9550 ha        1 MOL      0.120672
    132 H58        11.6150   -3.0200    0.2720 ha        1 MOL      0.120672
    133 H59        12.6540   -0.7890   -0.4600 ha        1 MOL      0.089972
    134 N12         6.3020    1.1090   -1.4730 n         1 MOL     -0.030317
    135 C45         6.2090    2.5150   -1.1610 c3        1 MOL      0.005739
    136 C46         5.4100    2.8240    0.0790 c         1 MOL      0.346511
    137 O20         5.4350    3.9630    0.4580 o         1 MOL     -0.507319
    138 C47         5.6210    3.2030   -2.4170 c3        1 MOL     -0.196901
    139 C48         6.1280    2.3570   -3.5700 c3        1 MOL      0.121825
    140 C49         6.1080    0.9530   -2.9070 c3        1 MOL      0.006259
    141 H60         7.1960    2.9560   -1.0250 h1        1 MOL      0.072952
    142 H61         4.5280    3.1820   -2.3950 hc        1 MOL      0.086556
    143 H62         5.9730    4.2280   -2.6120 hc        1 MOL      0.086556
    144 H63         5.5550    2.4510   -4.4910 hc        1 MOL     -0.008594
    145 H64         7.1480    2.5980   -3.8630 hc        1 MOL     -0.008594
    146 H65         5.1270    0.5460   -3.1710 h1        1 MOL     -0.012847
    147 H66         6.9420    0.4320   -3.3770 h1        1 MOL     -0.012847
    148 N13         4.7600    1.8100    0.7550 n         1 MOL     -0.074757
    149 C50         4.0020    2.0250    1.9910 c3        1 MOL      0.007427
    150 C51         4.6760    1.4530    3.1910 c         1 MOL      0.417445
    151 O21         4.7580    2.0990    4.2520 o         1 MOL     -0.574469
    152 C52         2.5170    1.6140    1.7480 c3        1 MOL     -0.013031
    153 C53         1.8810    2.1000    0.4500 c3        1 MOL      0.224387
    154 C54         0.5590    1.3860    0.1020 c         1 MOL      0.552429
    155 O22        -0.2790    2.0410   -0.5640 o         1 MOL     -0.721467
    156 O23         0.3790    0.1830    0.3370 o         1 MOL     -0.721467
    157 H67         4.8920    0.8870    0.3680 hn        1 MOL     -0.049366
    158 H68         4.0080    3.0890    2.2410 h1        1 MOL      0.078853
    159 H69         1.9180    2.0920    2.5240 hc        1 MOL     -0.011140
    160 H70         2.5210    0.5260    1.7670 hc        1 MOL     -0.011140
    161 H71         2.5690    2.1520   -0.3970 hc        1 MOL     -0.037131
    162 H72         1.5340    3.1260    0.5460 hc        1 MOL     -0.037131
    163 N14         5.3870    0.3660    3.0800 n         1 MOL     -0.058622
    164 C55         6.3630   -0.3480    3.9580 c3        1 MOL     -0.134645
    165 H73         6.1590   -0.1030    5.0010 h1        1 MOL      0.069995
    166 H74         6.2660   -1.4230    3.8120 h1        1 MOL      0.069995
    167 H75         7.3770   -0.0360    3.7040 h1        1 MOL      0.069995
    168 H76         5.2640   -0.0210    2.1540 hn        1 MOL      0.092893
    169 Ca1        -1.7140   -0.2610   -1.0290 Ca        1 MOL      1.772162
    170 O24        -1.0540   -2.5190   -2.1990 oh        1 MOL     -0.947247
    171 H77        -1.2020   -3.4580   -2.1030 ho        1 MOL      0.428243
    172 H78        -0.2470   -2.4560   -2.7030 ho        1 MOL      0.428243
@<TRIPOS>BOND
     1    1    2 1   
     2    1    4 1   
     3    1    5 1   
     4    1    6 1   
     5    2    3 2   
     6    2    7 1   
     7    7    8 1   
     8    7   15 1   
     9    8    9 1   
    10    8   11 1   
    11    8   16 1   
    12    9   10 2   
    13    9   19 1   
    14   11   12 1   
    15   11   17 1   
    16   11   18 1   
    17   12   13 1   
    18   12   14 1   
    19   19   20 1   
    20   19   24 1   
    21   20   21 1   
    22   20   23 1   
    23   20   25 1   
    24   21   22 2   
    25   21   29 1   
    26   23   26 1   
    27   23   27 1   
    28   23   28 1   
    29   29   30 1   
    30   29   37 1   
    31   30   31 1   
    32   30   33 1   
    33   30   38 1   
    34   31   32 2   
    35   31   41 1   
    36   33   34 1   
    37   33   39 1   
    38   33   40 1   
    39   34   35 1   
    40   34   36 1   
    41   41   42 1   
    42   41   45 1   
    43   42   43 1   
    44   42   46 1   
    45   42   47 1   
    46   43   44 2   
    47   43   48 1   
    48   48   49 1   
    49   48   56 1   
    50   49   50 1   
    51   49   52 1   
    52   49   57 1   
    53   50   51 2   
    54   50   62 1   
    55   52   53 1   
    56   52   58 1   
    57   52   59 1   
    58   53   54 1   
    59   53   55 2   
    60   54   60 1   
    61   54   61 1   
    62   62   63 1   
    63   62   66 1   
    64   63   64 1   
    65   63   67 1   
    66   63   68 1   
    67   64   65 2   
    68   64   69 1   
    69   69   70 1   
    70   69   76 1   
    71   70   71 1   
    72   70   73 1   
    73   70   77 1   
    74   71   72 2   
    75   71   83 1   
    76   73   74 1   
    77   73   75 1   
    78   73   78 1   
    79   74   80 1   
    80   74   81 1   
    81   74   82 1   
    82   75   79 1   
    83   83   84 1   
    84   83   91 1   
    85   84   85 1   
    86   84   87 1   
    87   84   92 1   
    88   85   86 2   
    89   85  102 1   
    90   87   88 1   
    91   87   89 1   
    92   87   93 1   
    93   88   90 1   
    94   88   94 1   
    95   88   95 1   
    96   89   96 1   
    97   89   97 1   
    98   89   98 1   
    99   90   99 1   
   100   90  100 1   
   101   90  101 1   
   102  102  103 1   
   103  102  110 1   
   104  103  104 1   
   105  103  106 1   
   106  103  111 1   
   107  104  105 2   
   108  104  114 1   
   109  106  107 1   
   110  106  112 1   
   111  106  113 1   
   112  107  108 1   
   113  107  109 1   
   114  114  115 1   
   115  114  125 1   
   116  115  116 1   
   117  115  118 1   
   118  115  126 1   
   119  116  117 2   
   120  116  134 1   
   121  118  119 1   
   122  118  127 1   
   123  118  128 1   
   124  119  120 ar  
   125  119  121 ar  
   126  120  122 ar  
   127  120  129 1   
   128  121  123 ar  
   129  121  130 1   
   130  122  124 ar  
   131  122  131 1   
   132  123  124 ar  
   133  123  132 1   
   134  124  133 1   
   135  134  135 1   
   136  134  140 1   
   137  135  136 1   
   138  135  138 1   
   139  135  141 1   
   140  136  137 2   
   141  136  148 1   
   142  138  139 1   
   143  138  142 1   
   144  138  143 1   
   145  139  140 1   
   146  139  144 1   
   147  139  145 1   
   148  140  146 1   
   149  140  147 1   
   150  148  149 1   
   151  148  157 1   
   152  149  150 1   
   153  149  152 1   
   154  149  158 1   
   155  150  151 2   
   156  150  163 1   
   157  152  153 1   
   158  152  159 1   
   159  152  160 1   
   160  153  154 1   
   161  153  161 1   
   162  153  162 1   
   163  154  155 1   
   164  154  156 1   
   165  163  164 1   
   166  163  168 1   
   167  164  165 1   
   168  164  166 1   
   169  164  167 1   
   170  170  171 1   
   171  170  172 1   
@<TRIPOS>SUBSTRUCTURE
     1 MOL         1 TEMP              0 ****  ****    0 ROOT
