@<TRIPOS>MOLECULE
MOL
  189   185     1     0     0
SMALL
resp


@<TRIPOS>ATOM
      1 C1         -0.1650   -4.6940    5.2050 c3        1 MOL     -0.355089
      2 C2          0.3730   -4.4740    3.8100 c         1 MOL      0.737818
      3 O1         -0.3760   -4.5770    2.8270 o         1 MOL     -0.561000
      4 H1         -1.1500   -5.1560    5.1450 hc        1 MOL      0.081952
      5 H2          0.5100   -5.3490    5.7570 hc        1 MOL      0.081952
      6 H3         -0.2440   -3.7360    5.7210 hc        1 MOL      0.081952
      7 N1          1.6420   -4.1590    3.6220 n         1 MOL     -0.682508
      8 C3          2.2510   -3.7810    2.3230 c3        1 MOL      0.381211
      9 C4          2.0280   -4.8760    1.3010 c         1 MOL      0.469940
     10 O2          2.2390   -6.0510    1.5910 o         1 MOL     -0.564594
     11 C5          3.7450   -3.5430    2.4720 c3        1 MOL     -0.510240
     12 C6          4.2740   -3.2290    1.0910 c         1 MOL      0.775748
     13 O3          5.1900   -4.0470    0.7260 o         1 MOL     -0.638595
     14 O4          3.8870   -2.2310    0.4280 o         1 MOL     -0.638595
     15 H4          2.2900   -4.1500    4.3970 hn        1 MOL      0.323702
     16 H5          1.9020   -2.8430    1.8870 h1        1 MOL      0.067192
     17 H6          4.3130   -4.3280    2.9740 hc        1 MOL      0.101507
     18 H7          3.7950   -2.6360    3.0690 hc        1 MOL      0.101507
     19 N2          1.6330   -4.4520    0.0720 n         1 MOL     -0.163113
     20 C7          1.6930   -5.3030   -1.1790 c3        1 MOL     -0.076579
     21 C8          2.8590   -5.0250   -2.1310 c         1 MOL      0.547785
     22 O5          3.3570   -5.9570   -2.7970 o         1 MOL     -0.588557
     23 C9          0.2210   -5.2430   -1.7880 c3        1 MOL      0.266620
     24 C10        -0.8890   -5.8430   -0.9190 c3        1 MOL     -0.169382
     25 C11         0.1600   -6.0470   -3.1130 c3        1 MOL     -0.413965
     26 C12        -2.3770   -5.5120   -1.2150 c3        1 MOL      0.003382
     27 H8          1.4450   -3.4670   -0.0140 hn        1 MOL     -0.025684
     28 H9          1.7630   -6.3450   -0.8560 h1        1 MOL      0.063145
     29 H10        -0.1070   -4.2610   -2.1280 hc        1 MOL      0.022985
     30 H11        -0.7220   -5.6140    0.1360 hc        1 MOL      0.040396
     31 H12        -0.8310   -6.9190   -1.0640 hc        1 MOL      0.040396
     32 H13         0.4910   -7.0730   -2.9230 hc        1 MOL      0.080553
     33 H14        -0.8240   -6.3070   -3.5030 hc        1 MOL      0.080553
     34 H15         0.7790   -5.5850   -3.8830 hc        1 MOL      0.080553
     35 H16        -3.1010   -5.9670   -0.5320 hc        1 MOL      0.009206
     36 H17        -2.5240   -4.4370   -1.1440 hc        1 MOL      0.009206
     37 H18        -2.6550   -5.7890   -2.2300 hc        1 MOL      0.009206
     38 N3          3.2630   -3.7320   -2.2810 n         1 MOL     -0.146533
     39 C13         3.9610   -3.1490   -3.3950 c3        1 MOL     -0.052820
     40 C14         5.3740   -2.4780   -3.1360 c         1 MOL      0.509805
     41 O6          6.1360   -2.2060   -4.0610 o         1 MOL     -0.594149
     42 C15         3.1530   -2.1480   -4.1730 c3        1 MOL     -0.100893
     43 C16         2.3420   -1.0680   -3.3580 c         1 MOL      0.680651
     44 O7          2.8080   -0.7760   -2.2280 o         1 MOL     -0.692983
     45 O8          1.3320   -0.5690   -3.8150 o         1 MOL     -0.692983
     46 H19         2.8880   -3.1470   -1.5360 hn        1 MOL      0.129186
     47 H20         4.1840   -3.9630   -4.0800 h1        1 MOL      0.074313
     48 H21         2.4430   -2.6850   -4.8070 hc        1 MOL      0.020013
     49 H22         3.8360   -1.6770   -4.8800 hc        1 MOL      0.020013
     50 N4          5.6980   -2.2500   -1.8690 n         1 MOL     -0.058664
     51 C17         7.0300   -2.0690   -1.3970 c3        1 MOL     -0.204747
     52 C18         7.4370   -0.5640   -1.3060 c         1 MOL      0.597874
     53 O9          8.4710   -0.2650   -0.7980 o         1 MOL     -0.611941
     54 H23         5.0740   -2.6570   -1.1990 hn        1 MOL     -0.028307
     55 H24         7.7400   -2.6850   -1.9400 h1        1 MOL      0.104420
     56 H25         7.0000   -2.3850   -0.3480 h1        1 MOL      0.104420
     57 N5          6.5370    0.3400   -1.8400 n         1 MOL     -0.453806
     58 C19         6.7220    1.7510   -2.1230 c3        1 MOL      0.177720
     59 C20         7.0820    2.5600   -0.9150 c         1 MOL      0.465008
     60 O10         7.3330    3.7050   -1.0350 o         1 MOL     -0.579285
     61 C21         5.5040    2.3690   -2.8680 c3        1 MOL     -0.321501
     62 C22         4.1400    2.4290   -2.0320 c         1 MOL      0.854376
     63 O11         4.0140    1.7800   -0.9230 o         1 MOL     -0.693659
     64 O12         3.2570    3.0730   -2.6280 o         1 MOL     -0.693659
     65 H26         5.8050   -0.1400   -2.3460 hn        1 MOL      0.214842
     66 H27         7.5710    1.7900   -2.8190 h1        1 MOL      0.052723
     67 H28         5.3170    1.7100   -3.7150 hc        1 MOL      0.084569
     68 H29         5.7520    3.3830   -3.1910 hc        1 MOL      0.084569
     69 N6          7.0890    2.0210    0.2820 n         1 MOL     -0.321722
     70 C23         7.2860    2.8200    1.5090 c3        1 MOL     -0.023159
     71 C24         6.0030    3.4460    2.1110 c         1 MOL      0.338362
     72 O13         6.0690    3.9640    3.2370 o         1 MOL     -0.562005
     73 H30         6.8540    1.0460    0.3380 hn        1 MOL      0.300436
     74 H31         7.9760    3.6450    1.3440 h1        1 MOL      0.075865
     75 H32         7.8730    2.2520    2.2370 h1        1 MOL      0.075865
     76 N7          4.8890    3.2890    1.3500 n         1 MOL      0.093920
     77 C25         3.5980    4.0230    1.6340 c3        1 MOL     -0.096763
     78 C26         2.3420    3.2070    1.7850 c         1 MOL      0.356710
     79 O14         2.3780    2.0290    1.5050 o         1 MOL     -0.469242
     80 C27         3.3890    5.1210    0.5470 c3        1 MOL      0.156972
     81 C28         4.4440    6.1720    0.4190 c3        1 MOL     -0.329438
     82 C29         4.0900    7.5040   -0.3620 c         1 MOL      0.691208
     83 N8          4.8920    7.7940   -1.3870 n         1 MOL     -0.842164
     84 O15         3.0650    8.1310   -0.1800 o         1 MOL     -0.561172
     85 H33         4.8950    2.6170    0.6020 hn        1 MOL     -0.086149
     86 H34         3.7500    4.5230    2.5800 h1        1 MOL      0.037749
     87 H35         2.4160    5.5830    0.7130 hc        1 MOL      0.018771
     88 H36         3.2420    4.6840   -0.4410 hc        1 MOL      0.018771
     89 H37         5.3140    5.6990   -0.0190 hc        1 MOL      0.080634
     90 H38         4.7100    6.5510    1.4060 hc        1 MOL      0.080634
     91 H39         5.7370    7.2470   -1.5010 hn        1 MOL      0.373502
     92 H40         4.5920    8.4130   -2.1360 hn        1 MOL      0.373502
     93 N9          1.2710    3.8420    2.2330 n         1 MOL     -0.242061
     94 C30         0.0130    3.0700    2.3830 c3        1 MOL     -0.087819
     95 C31        -0.9490    3.3170    1.2140 c         1 MOL      0.623077
     96 O16        -1.1230    4.5030    0.9400 o         1 MOL     -0.593549
     97 C32        -0.7890    3.3810    3.7690 c3        1 MOL      0.348474
     98 C33        -2.1070    2.6380    3.7440 c3        1 MOL     -0.230726
     99 C34         0.0800    2.9740    4.9290 c3        1 MOL     -0.230726
    100 H41         1.3390    4.7550    2.6390 hn        1 MOL      0.250917
    101 H42         0.2700    2.0020    2.4160 h1        1 MOL      0.029853
    102 H43        -1.0330    4.4510    3.8020 hc        1 MOL     -0.047112
    103 H44        -1.8440    1.5940    3.6460 hc        1 MOL      0.035087
    104 H45        -2.5150    2.7180    4.7470 hc        1 MOL      0.035087
    105 H46        -2.8050    3.1040    3.0530 hc        1 MOL      0.035087
    106 H47         0.9410    3.6420    4.8480 hc        1 MOL      0.035087
    107 H48        -0.4340    3.2980    5.8310 hc        1 MOL      0.035087
    108 H49         0.4510    1.9560    4.9910 hc        1 MOL      0.035087
    109 N10        -1.6090    2.2220    0.7350 n         1 MOL     -0.459338
    110 C35        -2.6560    2.2630   -0.2700 c3        1 MOL      0.411092
    111 C36        -4.0360    1.7470    0.2820 c         1 MOL      0.128339
    112 O17        -4.0130    1.0530    1.3270 o         1 MOL     -0.217450
    113 C37        -2.1540    1.4130   -1.4700 c3        1 MOL     -0.399760
    114 C38        -3.2410    1.0810   -2.4410 c         1 MOL      0.738669
    115 N11        -3.4500    1.9270   -3.4290 n         1 MOL     -0.783268
    116 O18        -3.8380    0.0210   -2.3660 o         1 MOL     -0.544326
    117 H50        -1.4430    1.3310    1.1660 hn        1 MOL      0.128994
    118 H51        -2.8540    3.2620   -0.6610 h1        1 MOL     -0.014961
    119 H52        -1.6460    0.4810   -1.2160 hc        1 MOL      0.127454
    120 H53        -1.4420    2.0780   -1.9530 hc        1 MOL      0.127454
    121 H54        -2.8590    2.7430   -3.4220 hn        1 MOL      0.344855
    122 H55        -4.1580    1.8090   -4.1410 hn        1 MOL      0.344855
    123 N12        -5.1880    1.9890   -0.4240 n         1 MOL     -0.182963
    124 C39        -6.5240    1.5290   -0.0130 c3        1 MOL      0.002621
    125 C40        -6.4770    0.0370    0.4150 c         1 MOL      0.569416
    126 O19        -6.7590   -0.1870    1.6000 o         1 MOL     -0.569605
    127 C41        -7.5330    1.6260   -1.1800 c3        1 MOL     -0.103193
    128 C42        -8.0500    3.0280   -1.5990 ca        1 MOL      0.179897
    129 C43        -9.1740    3.5360   -0.9480 ca        1 MOL     -0.186506
    130 C44        -7.5050    3.7360   -2.6560 ca        1 MOL     -0.186506
    131 C45        -9.8120    4.6810   -1.4010 ca        1 MOL     -0.267022
    132 C46        -8.0960    4.9740   -3.0580 ca        1 MOL     -0.267022
    133 C47        -9.3030    5.4540   -2.4950 ca        1 MOL      0.305007
    134 O20        -9.7950    6.6640   -2.7370 oh        1 MOL     -0.442051
    135 H56        -5.0830    2.8110   -0.9980 hn        1 MOL      0.130969
    136 H57        -6.9720    2.0730    0.8210 h1        1 MOL      0.064550
    137 H58        -8.3120    0.8970   -0.9590 hc        1 MOL      0.043670
    138 H59        -6.9830    1.3040   -2.0710 hc        1 MOL      0.043670
    139 H60        -9.6610    2.9670   -0.1720 ha        1 MOL      0.144333
    140 H61        -6.5190    3.4630   -2.9800 ha        1 MOL      0.144333
    141 H62       -10.7090    5.0550   -0.9320 ha        1 MOL      0.134512
    142 H63        -7.6720    5.5620   -3.8610 ha        1 MOL      0.134512
    143 H64        -9.1090    7.0950   -3.2540 ho        1 MOL      0.331012
    144 N13        -6.0560   -0.9020   -0.4130 n         1 MOL     -0.390375
    145 C48        -6.0750   -2.3480   -0.1720 c3        1 MOL     -0.056453
    146 C49        -5.0850   -2.8890    0.9610 c         1 MOL      0.283145
    147 O21        -5.0390   -4.0880    1.3220 o         1 MOL     -0.503535
    148 C50        -5.7170   -3.2210   -1.3310 c3        1 MOL     -0.090480
    149 C51        -6.6810   -3.0780   -2.5150 c3        1 MOL     -0.025807
    150 C52        -8.1620   -3.2430   -2.2830 c         1 MOL      0.670255
    151 O22        -8.5720   -4.1950   -1.5330 o         1 MOL     -0.740782
    152 O23        -8.9290   -2.3730   -2.8000 o         1 MOL     -0.740782
    153 H65        -5.6320   -0.7100   -1.3140 hn        1 MOL      0.301285
    154 H66        -7.0960   -2.4870    0.1990 h1        1 MOL      0.169535
    155 H67        -5.6360   -4.2810   -1.0680 hc        1 MOL      0.064802
    156 H68        -4.7720   -2.9260   -1.7860 hc        1 MOL      0.064802
    157 H69        -6.4450   -3.7470   -3.3320 hc        1 MOL     -0.040429
    158 H70        -6.4850   -2.1290   -3.0250 hc        1 MOL     -0.040429
    159 N14        -4.2900   -2.0190    1.5630 n         1 MOL      0.013396
    160 C53        -3.4070   -2.1530    2.6990 c3        1 MOL      0.055923
    161 C54        -4.0610   -1.4170    3.8750 c         1 MOL      0.397044
    162 O24        -4.1150   -1.8930    4.9950 o         1 MOL     -0.575533
    163 C55        -1.9750   -1.5380    2.4570 c3        1 MOL      0.079622
    164 C56        -1.4460   -1.8470    1.0180 c3        1 MOL      0.129930
    165 C57        -0.1460   -1.1560    0.6160 c         1 MOL      0.468919
    166 O25         0.6100   -1.7940   -0.1640 o         1 MOL     -0.546855
    167 O26         0.0940   -0.0180    0.9870 o         1 MOL     -0.546855
    168 H71        -4.3580   -1.0580    1.2710 hn        1 MOL      0.008558
    169 H72        -3.2500   -3.2170    2.8740 h1        1 MOL      0.045221
    170 H73        -1.4170   -2.0570    3.2310 hc        1 MOL     -0.036883
    171 H74        -1.8500   -0.5130    2.7910 hc        1 MOL     -0.036883
    172 H75        -2.1790   -1.6540    0.2320 hc        1 MOL     -0.015059
    173 H76        -1.2430   -2.9200    0.9280 hc        1 MOL     -0.015059
    174 N15        -4.6460   -0.2350    3.7000 n         1 MOL      0.017286
    175 C58        -5.2380    0.5900    4.7570 c3        1 MOL     -0.202472
    176 H77        -6.0970    0.0730    5.1840 h1        1 MOL      0.070642
    177 H78        -4.4980    0.7690    5.5370 h1        1 MOL      0.070642
    178 H79        -5.5610    1.5430    4.3370 h1        1 MOL      0.070642
    179 H80        -4.7690    0.1260    2.7630 hn        1 MOL      0.016274
    180 Ca1         2.6110   -0.0100    0.1540 Ca        1 MOL      1.643398
    181 O27         1.7110   -0.5650    3.1060 oh        1 MOL     -0.877826
    182 H81         0.8250   -0.2370    2.9300 ho        1 MOL      0.418252
    183 H82         2.0720    0.0780    3.7200 ho        1 MOL      0.418252
    184 O28         1.2400    1.5520   -1.8670 oh        1 MOL     -0.877826
    185 H83         1.7930    2.2180   -2.2570 ho        1 MOL      0.418252
    186 H84         1.1930    0.8580   -2.5250 ho        1 MOL      0.418252
    187 O29         4.6160    0.1820    1.9640 oh        1 MOL     -0.877826
    188 H85         5.4490   -0.2740    2.0980 ho        1 MOL      0.418252
    189 H86         4.4170    0.5840    2.8030 ho        1 MOL      0.418252
@<TRIPOS>BOND
     1    1    2 1   
     2    1    4 1   
     3    1    5 1   
     4    1    6 1   
     5    2    3 2   
     6    2    7 1   
     7    7    8 1   
     8    7   15 1   
     9    8    9 1   
    10    8   11 1   
    11    8   16 1   
    12    9   10 2   
    13    9   19 1   
    14   11   12 1   
    15   11   17 1   
    16   11   18 1   
    17   12   13 1   
    18   12   14 1   
    19   19   20 1   
    20   19   27 1   
    21   20   21 1   
    22   20   23 1   
    23   20   28 1   
    24   21   22 2   
    25   21   38 1   
    26   23   24 1   
    27   23   25 1   
    28   23   29 1   
    29   24   26 1   
    30   24   30 1   
    31   24   31 1   
    32   25   32 1   
    33   25   33 1   
    34   25   34 1   
    35   26   35 1   
    36   26   36 1   
    37   26   37 1   
    38   38   39 1   
    39   38   46 1   
    40   39   40 1   
    41   39   42 1   
    42   39   47 1   
    43   40   41 2   
    44   40   50 1   
    45   42   43 1   
    46   42   48 1   
    47   42   49 1   
    48   43   44 1   
    49   43   45 1   
    50   50   51 1   
    51   50   54 1   
    52   51   52 1   
    53   51   55 1   
    54   51   56 1   
    55   52   53 2   
    56   52   57 1   
    57   57   58 1   
    58   57   65 1   
    59   58   59 1   
    60   58   61 1   
    61   58   66 1   
    62   59   60 2   
    63   59   69 1   
    64   61   62 1   
    65   61   67 1   
    66   61   68 1   
    67   62   63 1   
    68   62   64 1   
    69   69   70 1   
    70   69   73 1   
    71   70   71 1   
    72   70   74 1   
    73   70   75 1   
    74   71   72 2   
    75   71   76 1   
    76   76   77 1   
    77   76   85 1   
    78   77   78 1   
    79   77   80 1   
    80   77   86 1   
    81   78   79 2   
    82   78   93 1   
    83   80   81 1   
    84   80   87 1   
    85   80   88 1   
    86   81   82 1   
    87   81   89 1   
    88   81   90 1   
    89   82   83 1   
    90   82   84 2   
    91   83   91 1   
    92   83   92 1   
    93   93   94 1   
    94   93  100 1   
    95   94   95 1   
    96   94   97 1   
    97   94  101 1   
    98   95   96 2   
    99   95  109 1   
   100   97   98 1   
   101   97   99 1   
   102   97  102 1   
   103   98  103 1   
   104   98  104 1   
   105   98  105 1   
   106   99  106 1   
   107   99  107 1   
   108   99  108 1   
   109  109  110 1   
   110  109  117 1   
   111  110  111 1   
   112  110  113 1   
   113  110  118 1   
   114  111  112 2   
   115  111  123 1   
   116  113  114 1   
   117  113  119 1   
   118  113  120 1   
   119  114  115 1   
   120  114  116 2   
   121  115  121 1   
   122  115  122 1   
   123  123  124 1   
   124  123  135 1   
   125  124  125 1   
   126  124  127 1   
   127  124  136 1   
   128  125  126 2   
   129  125  144 1   
   130  127  128 1   
   131  127  137 1   
   132  127  138 1   
   133  128  129 ar  
   134  128  130 ar  
   135  129  131 ar  
   136  129  139 1   
   137  130  132 ar  
   138  130  140 1   
   139  131  133 ar  
   140  131  141 1   
   141  132  133 ar  
   142  132  142 1   
   143  133  134 1   
   144  134  143 1   
   145  144  145 1   
   146  144  153 1   
   147  145  146 1   
   148  145  148 1   
   149  145  154 1   
   150  146  147 2   
   151  146  159 1   
   152  148  149 1   
   153  148  155 1   
   154  148  156 1   
   155  149  150 1   
   156  149  157 1   
   157  149  158 1   
   158  150  151 1   
   159  150  152 1   
   160  159  160 1   
   161  159  168 1   
   162  160  161 1   
   163  160  163 1   
   164  160  169 1   
   165  161  162 2   
   166  161  174 1   
   167  163  164 1   
   168  163  170 1   
   169  163  171 1   
   170  164  165 1   
   171  164  172 1   
   172  164  173 1   
   173  165  166 1   
   174  165  167 1   
   175  174  175 1   
   176  174  179 1   
   177  175  176 1   
   178  175  177 1   
   179  175  178 1   
   180  181  182 1   
   181  181  183 1   
   182  184  185 1   
   183  184  186 1   
   184  187  188 1   
   185  187  189 1   
@<TRIPOS>SUBSTRUCTURE
     1 MOL         1 TEMP              0 ****  ****    0 ROOT
