@<TRIPOS>MOLECULE
MOL
  189   185     1     0     0
SMALL
resp


@<TRIPOS>ATOM
      1 C1          1.1180   -3.4140    6.0580 c3        1 MOL     -0.481522
      2 C2          1.2570   -2.9960    4.6220 c         1 MOL      0.866254
      3 O1          1.0210   -1.8530    4.2080 o         1 MOL     -0.664088
      4 H1          0.7120   -4.4250    6.1040 hc        1 MOL      0.121246
      5 H2          2.0960   -3.3950    6.5390 hc        1 MOL      0.121246
      6 H3          0.4460   -2.7280    6.5730 hc        1 MOL      0.121246
      7 N1          1.6330   -3.9260    3.7040 n         1 MOL     -0.671025
      8 C3          2.1240   -3.7160    2.3990 c3        1 MOL      0.332167
      9 C4          1.9020   -4.8900    1.4610 c         1 MOL      0.487459
     10 O2          2.1020   -5.9980    1.8540 o         1 MOL     -0.601371
     11 C5          3.6080   -3.4830    2.6090 c3        1 MOL     -0.432218
     12 C6          4.2850   -2.9360    1.3190 c         1 MOL      0.688078
     13 O3          3.6240   -2.4150    0.4360 o         1 MOL     -0.675807
     14 O4          5.4990   -3.2400    1.1490 o         1 MOL     -0.675807
     15 H4          1.7110   -4.9020    3.9500 hn        1 MOL      0.286025
     16 H5          1.5730   -2.8330    2.0650 h1        1 MOL     -0.024846
     17 H6          4.0720   -4.4490    2.7860 hc        1 MOL      0.108168
     18 H7          3.7420   -2.8010    3.4460 hc        1 MOL      0.108168
     19 N2          1.7530   -4.6220    0.1640 n         1 MOL      0.030055
     20 C7          1.8290   -5.6060   -0.9000 c3        1 MOL     -0.170596
     21 C8          2.8700   -5.2590   -1.9890 c         1 MOL      0.573254
     22 O5          3.3740   -6.1710   -2.6290 o         1 MOL     -0.594555
     23 C9          0.4150   -5.7320   -1.5060 c3        1 MOL      0.163050
     24 C10        -0.4660   -6.3880   -0.3800 c3        1 MOL      0.086497
     25 C11         0.4780   -6.4440   -2.9110 c3        1 MOL     -0.164588
     26 C12        -1.9500   -6.2210   -0.7240 c3        1 MOL     -0.177747
     27 H8          1.4800   -3.6730   -0.0430 hn        1 MOL      0.065695
     28 H9          2.1570   -6.5610   -0.4890 h1        1 MOL      0.084915
     29 H10        -0.0060   -4.7370   -1.6580 hc        1 MOL     -0.003187
     30 H11        -0.2920   -6.0020    0.6190 hc        1 MOL     -0.034685
     31 H12        -0.2540   -7.4540   -0.2870 hc        1 MOL     -0.034685
     32 H13        -0.5440   -6.6400   -3.2160 hc        1 MOL      0.031896
     33 H14         0.9720   -5.7990   -3.6420 hc        1 MOL      0.031896
     34 H15         0.9710   -7.4150   -2.8840 hc        1 MOL      0.031896
     35 H16        -2.5970   -6.6700    0.0300 hc        1 MOL      0.031982
     36 H17        -2.2400   -5.1660   -0.6780 hc        1 MOL      0.031982
     37 H18        -2.1840   -6.6730   -1.6830 hc        1 MOL      0.031982
     38 N3          3.3160   -4.0100   -2.1340 n         1 MOL     -0.408277
     39 C13         4.2110   -3.5300   -3.1840 c3        1 MOL      0.323012
     40 C14         5.5610   -2.9630   -2.7510 c         1 MOL      0.251124
     41 O6          6.4690   -3.1640   -3.5610 o         1 MOL     -0.588489
     42 C15         3.5720   -2.3920   -4.0670 c3        1 MOL     -0.412413
     43 C16         2.8180   -1.2890   -3.2920 c         1 MOL      0.745505
     44 O7          3.2760   -0.8840   -2.1800 o         1 MOL     -0.667573
     45 O8          1.7210   -0.8560   -3.6700 o         1 MOL     -0.667573
     46 H19         3.0840   -3.3500   -1.4070 hn        1 MOL      0.258304
     47 H20         4.4750   -4.3570   -3.8520 h1        1 MOL      0.047836
     48 H21         3.0050   -2.8700   -4.8600 hc        1 MOL      0.099449
     49 H22         4.3240   -1.8470   -4.6380 hc        1 MOL      0.099449
     50 N4          5.8090   -2.3320   -1.6140 n         1 MOL      0.139658
     51 C17         7.0640   -1.8030   -1.1820 c3        1 MOL     -0.072328
     52 C18         7.2370   -0.3010   -1.5990 c         1 MOL      0.473447
     53 O9          8.3680    0.1550   -1.5620 o         1 MOL     -0.623451
     54 H23         4.9860   -2.1770   -1.0620 hn        1 MOL     -0.088175
     55 H24         7.8730   -2.3930   -1.5930 h1        1 MOL      0.058014
     56 H25         7.1330   -1.7750   -0.0960 h1        1 MOL      0.058014
     57 N5          6.2180    0.4730   -1.9200 n         1 MOL     -0.131497
     58 C19         6.3560    1.7810   -2.6260 c3        1 MOL     -0.129648
     59 C20         6.7140    2.9960   -1.7530 c         1 MOL      0.582198
     60 O10         6.9460    4.0510   -2.1510 o         1 MOL     -0.549700
     61 C21         5.0340    1.8870   -3.3150 c3        1 MOL     -0.182362
     62 C22         3.8210    2.0710   -2.3620 c         1 MOL      0.650419
     63 O11         3.8390    1.8170   -1.0870 o         1 MOL     -0.660009
     64 O12         2.7250    2.3780   -2.8980 o         1 MOL     -0.660009
     65 H26         5.3460   -0.0140   -1.9820 hn        1 MOL      0.140911
     66 H27         7.2170    1.7020   -3.2960 h1        1 MOL      0.095913
     67 H28         4.8700    0.9880   -3.8950 hc        1 MOL      0.072079
     68 H29         5.0770    2.7240   -4.0160 hc        1 MOL      0.072079
     69 N6          6.6780    2.7740   -0.4200 n         1 MOL     -0.351238
     70 C23         6.8880    3.7960    0.6150 c3        1 MOL     -0.169117
     71 C24         5.6810    4.3750    1.2720 c         1 MOL      0.563070
     72 O13         5.7470    5.2340    2.1350 o         1 MOL     -0.611329
     73 H30         6.3330    1.8810   -0.0920 hn        1 MOL      0.242950
     74 H31         7.3850    4.6890    0.2230 h1        1 MOL      0.096419
     75 H32         7.5210    3.4180    1.4170 h1        1 MOL      0.096419
     76 N7          4.4790    3.9320    0.8630 n         1 MOL     -0.267407
     77 C25         3.1750    4.4640    1.3990 c3        1 MOL     -0.184999
     78 C26         2.1970    3.3450    1.7160 c         1 MOL      0.661988
     79 O14         2.1300    2.4600    0.9180 o         1 MOL     -0.603811
     80 C27         2.4910    5.4800    0.4310 c3        1 MOL      0.233556
     81 C28         3.3390    6.7340    0.0740 c3        1 MOL     -0.458627
     82 C29         2.5400    7.8510   -0.5450 c         1 MOL      0.632507
     83 N8          2.1100    7.7710   -1.7680 n         1 MOL     -0.737372
     84 O15         2.1500    8.8140    0.1390 o         1 MOL     -0.590569
     85 H33         4.3690    3.1630    0.2120 hn        1 MOL      0.198126
     86 H34         3.4100    5.0530    2.2830 h1        1 MOL      0.099074
     87 H35         1.5980    5.8100    0.9670 hc        1 MOL      0.018817
     88 H36         2.0070    5.0650   -0.4600 hc        1 MOL      0.018817
     89 H37         4.1100    6.4240   -0.6410 hc        1 MOL      0.146211
     90 H38         3.8550    7.1360    0.9500 hc        1 MOL      0.146211
     91 H39         2.4510    6.9870   -2.3060 hn        1 MOL      0.353128
     92 H40         1.6190    8.5570   -2.1580 hn        1 MOL      0.353128
     93 N9          1.3540    3.4610    2.8160 n         1 MOL     -0.717006
     94 C30         0.1940    2.5180    3.0580 c3        1 MOL      0.369430
     95 C31        -0.9250    3.0560    2.1680 c         1 MOL      0.458077
     96 O16        -1.2320    4.2190    2.3240 o         1 MOL     -0.605865
     97 C32        -0.2630    2.4570    4.5480 c3        1 MOL      0.240087
     98 C33        -1.3250    1.3840    4.6260 c3        1 MOL     -0.412132
     99 C34         0.9250    2.0830    5.4290 c3        1 MOL     -0.412132
    100 H41         1.4220    4.3640    3.2730 hn        1 MOL      0.324827
    101 H42         0.4910    1.5440    2.6770 h1        1 MOL     -0.058590
    102 H43        -0.6830    3.4350    4.7790 hc        1 MOL     -0.018203
    103 H44        -1.4980    1.2500    5.7010 hc        1 MOL      0.097219
    104 H45        -2.2410    1.6750    4.1100 hc        1 MOL      0.097219
    105 H46        -0.8770    0.4170    4.3870 hc        1 MOL      0.097219
    106 H47         1.3610    1.1170    5.1970 hc        1 MOL      0.097219
    107 H48         1.6420    2.9090    5.4750 hc        1 MOL      0.097219
    108 H49         0.5740    1.8480    6.4310 hc        1 MOL      0.097219
    109 N10        -1.6070    2.1780    1.4350 n         1 MOL     -0.100606
    110 C35        -2.7740    2.3790    0.6010 c3        1 MOL      0.261960
    111 C36        -4.0670    1.8560    1.2330 c         1 MOL      0.268625
    112 O17        -4.1060    0.9710    2.0490 o         1 MOL     -0.433836
    113 C37        -2.4920    1.6850   -0.7800 c3        1 MOL     -0.412050
    114 C38        -3.6280    1.7540   -1.7390 c         1 MOL      0.896497
    115 N11        -3.8800    2.9380   -2.3230 n         1 MOL     -0.864551
    116 O18        -4.2920    0.8020   -2.0590 o         1 MOL     -0.574793
    117 H50        -1.2570    1.2220    1.4620 hn        1 MOL      0.014950
    118 H51        -2.8760    3.4580    0.4800 h1        1 MOL     -0.018240
    119 H52        -2.3310    0.6370   -0.5430 hc        1 MOL      0.124428
    120 H53        -1.5350    1.9920   -1.2110 hc        1 MOL      0.124428
    121 H54        -3.3770    3.7660   -2.0330 hn        1 MOL      0.372418
    122 H55        -4.6870    3.0220   -2.9160 hn        1 MOL      0.372418
    123 N12        -5.2630    2.3170    0.7390 n         1 MOL     -0.165718
    124 C39        -6.5370    1.7820    1.1790 c3        1 MOL      0.071374
    125 C40        -6.8820    0.3460    0.8020 c         1 MOL      0.384679
    126 O19        -7.7600   -0.3250    1.4750 o         1 MOL     -0.579881
    127 C41        -7.6360    2.7500    0.7210 c3        1 MOL     -0.180458
    128 C42        -7.7230    2.9070   -0.7600 ca        1 MOL      0.111577
    129 C43        -8.7100    2.1990   -1.4830 ca        1 MOL     -0.137787
    130 C44        -6.9850    3.9010   -1.4000 ca        1 MOL     -0.137787
    131 C45        -8.7910    2.3180   -2.8850 ca        1 MOL     -0.399495
    132 C46        -7.0320    4.0250   -2.7760 ca        1 MOL     -0.399495
    133 C47        -7.9230    3.1690   -3.5490 ca        1 MOL      0.475932
    134 O20        -7.9400    3.2020   -4.8590 oh        1 MOL     -0.523144
    135 H56        -5.2780    3.0230    0.0240 hn        1 MOL      0.067798
    136 H57        -6.6000    1.9000    2.2620 h1        1 MOL      0.089866
    137 H58        -7.3990    3.7230    1.1610 hc        1 MOL      0.049279
    138 H59        -8.6260    2.4470    1.0630 hc        1 MOL      0.049279
    139 H60        -9.2780    1.4210   -1.0130 ha        1 MOL      0.152403
    140 H61        -6.3650    4.4830   -0.7400 ha        1 MOL      0.152403
    141 H62        -9.4050    1.6120   -3.4210 ha        1 MOL      0.181169
    142 H63        -6.3620    4.6590   -3.3380 ha        1 MOL      0.181169
    143 H64        -8.6340    2.6040   -5.1610 ho        1 MOL      0.413550
    144 N13        -6.3030   -0.2680   -0.2140 n         1 MOL     -0.178260
    145 C48        -6.2650   -1.7560   -0.4240 c3        1 MOL     -0.003747
    146 C49        -5.2680   -2.5370    0.3590 c         1 MOL      0.350287
    147 O21        -5.0610   -3.7580    0.1170 o         1 MOL     -0.509406
    148 C50        -6.2750   -2.1510   -1.9270 c3        1 MOL     -0.188334
    149 C51        -7.2940   -1.3580   -2.7450 c3        1 MOL     -0.172390
    150 C52        -7.4090   -1.7890   -4.1990 c         1 MOL      0.732192
    151 O22        -6.9150   -1.1270   -5.1150 o         1 MOL     -0.757835
    152 O23        -8.1590   -2.7990   -4.4140 o         1 MOL     -0.757835
    153 H65        -5.6070    0.2810   -0.6900 hn        1 MOL      0.178729
    154 H66        -7.2010   -2.1510   -0.0190 h1        1 MOL      0.118758
    155 H67        -6.4650   -3.2210   -1.9340 hc        1 MOL      0.106715
    156 H68        -5.3100   -1.9490   -2.3920 hc        1 MOL      0.106715
    157 H69        -7.0660   -0.2890   -2.7320 hc        1 MOL      0.036148
    158 H70        -8.3170   -1.4290   -2.3950 hc        1 MOL      0.036148
    159 N14        -4.4120   -1.8740    1.1960 n         1 MOL     -0.121234
    160 C53        -3.5670   -2.4010    2.2330 c3        1 MOL     -0.232357
    161 C54        -4.2190   -2.3020    3.6710 c         1 MOL      0.420499
    162 O24        -3.6800   -2.8280    4.6530 o         1 MOL     -0.541587
    163 C55        -2.0890   -1.9000    2.1520 c3        1 MOL      0.222628
    164 C56        -1.3970   -2.1930    0.8170 c3        1 MOL     -0.024289
    165 C57        -0.1630   -1.3710    0.6460 c         1 MOL      0.690028
    166 O25         0.7180   -1.8360   -0.1340 o         1 MOL     -0.723254
    167 O26         0.0470   -0.2710    1.2180 o         1 MOL     -0.723254
    168 H71        -4.3740   -0.8720    1.1270 hn        1 MOL      0.097326
    169 H72        -3.3470   -3.4430    1.9850 h1        1 MOL      0.107286
    170 H73        -1.5200   -2.4400    2.9060 hc        1 MOL      0.002597
    171 H74        -2.0430   -0.8420    2.3930 hc        1 MOL      0.002597
    172 H75        -2.0300   -1.9080   -0.0180 hc        1 MOL      0.030473
    173 H76        -1.1100   -3.2420    0.7650 hc        1 MOL      0.030473
    174 N15        -5.2680   -1.5060    3.8260 n         1 MOL     -0.115060
    175 C58        -5.7960   -1.2050    5.1810 c3        1 MOL     -0.166070
    176 H77        -6.1530   -2.1260    5.6430 h1        1 MOL      0.070035
    177 H78        -5.0030   -0.7760    5.7930 h1        1 MOL      0.070035
    178 H79        -6.6200   -0.4960    5.1020 h1        1 MOL      0.070035
    179 H80        -5.7730   -1.1020    3.0520 hn        1 MOL      0.160740
    180 Ca1         2.4620    0.0480    0.0700 Ca        1 MOL      1.726501
    181 O27         2.5260   -0.1170    2.8620 oh        1 MOL     -0.773714
    182 H81         1.7630   -0.5160    3.2870 ho        1 MOL      0.381442
    183 H82         3.1070    0.0990    3.5920 ho        1 MOL      0.381442
    184 O28         5.0670    0.0670    1.0040 oh        1 MOL     -0.773714
    185 H83         5.4330   -0.8110    1.1410 ho        1 MOL      0.381442
    186 H84         5.1980    0.5180    1.8400 ho        1 MOL      0.381442
    187 O29         0.7180    0.9460   -1.8560 oh        1 MOL     -0.773714
    188 H85         1.4550    1.5140   -2.0870 ho        1 MOL      0.381442
    189 H86         0.8890    0.1340   -2.3420 ho        1 MOL      0.381442
@<TRIPOS>BOND
     1    1    2 1   
     2    1    4 1   
     3    1    5 1   
     4    1    6 1   
     5    2    3 2   
     6    2    7 1   
     7    7    8 1   
     8    7   15 1   
     9    8    9 1   
    10    8   11 1   
    11    8   16 1   
    12    9   10 2   
    13    9   19 1   
    14   11   12 1   
    15   11   17 1   
    16   11   18 1   
    17   12   13 1   
    18   12   14 1   
    19   19   20 1   
    20   19   27 1   
    21   20   21 1   
    22   20   23 1   
    23   20   28 1   
    24   21   22 2   
    25   21   38 1   
    26   23   24 1   
    27   23   25 1   
    28   23   29 1   
    29   24   26 1   
    30   24   30 1   
    31   24   31 1   
    32   25   32 1   
    33   25   33 1   
    34   25   34 1   
    35   26   35 1   
    36   26   36 1   
    37   26   37 1   
    38   38   39 1   
    39   38   46 1   
    40   39   40 1   
    41   39   42 1   
    42   39   47 1   
    43   40   41 2   
    44   40   50 1   
    45   42   43 1   
    46   42   48 1   
    47   42   49 1   
    48   43   44 1   
    49   43   45 1   
    50   50   51 1   
    51   50   54 1   
    52   51   52 1   
    53   51   55 1   
    54   51   56 1   
    55   52   53 2   
    56   52   57 1   
    57   57   58 1   
    58   57   65 1   
    59   58   59 1   
    60   58   61 1   
    61   58   66 1   
    62   59   60 2   
    63   59   69 1   
    64   61   62 1   
    65   61   67 1   
    66   61   68 1   
    67   62   63 1   
    68   62   64 1   
    69   69   70 1   
    70   69   73 1   
    71   70   71 1   
    72   70   74 1   
    73   70   75 1   
    74   71   72 2   
    75   71   76 1   
    76   76   77 1   
    77   76   85 1   
    78   77   78 1   
    79   77   80 1   
    80   77   86 1   
    81   78   79 2   
    82   78   93 1   
    83   80   81 1   
    84   80   87 1   
    85   80   88 1   
    86   81   82 1   
    87   81   89 1   
    88   81   90 1   
    89   82   83 1   
    90   82   84 2   
    91   83   91 1   
    92   83   92 1   
    93   93   94 1   
    94   93  100 1   
    95   94   95 1   
    96   94   97 1   
    97   94  101 1   
    98   95   96 2   
    99   95  109 1   
   100   97   98 1   
   101   97   99 1   
   102   97  102 1   
   103   98  103 1   
   104   98  104 1   
   105   98  105 1   
   106   99  106 1   
   107   99  107 1   
   108   99  108 1   
   109  109  110 1   
   110  109  117 1   
   111  110  111 1   
   112  110  113 1   
   113  110  118 1   
   114  111  112 2   
   115  111  123 1   
   116  113  114 1   
   117  113  119 1   
   118  113  120 1   
   119  114  115 1   
   120  114  116 2   
   121  115  121 1   
   122  115  122 1   
   123  123  124 1   
   124  123  135 1   
   125  124  125 1   
   126  124  127 1   
   127  124  136 1   
   128  125  126 2   
   129  125  144 1   
   130  127  128 1   
   131  127  137 1   
   132  127  138 1   
   133  128  129 ar  
   134  128  130 ar  
   135  129  131 ar  
   136  129  139 1   
   137  130  132 ar  
   138  130  140 1   
   139  131  133 ar  
   140  131  141 1   
   141  132  133 ar  
   142  132  142 1   
   143  133  134 1   
   144  134  143 1   
   145  144  145 1   
   146  144  153 1   
   147  145  146 1   
   148  145  148 1   
   149  145  154 1   
   150  146  147 2   
   151  146  159 1   
   152  148  149 1   
   153  148  155 1   
   154  148  156 1   
   155  149  150 1   
   156  149  157 1   
   157  149  158 1   
   158  150  151 1   
   159  150  152 1   
   160  159  160 1   
   161  159  168 1   
   162  160  161 1   
   163  160  163 1   
   164  160  169 1   
   165  161  162 2   
   166  161  174 1   
   167  163  164 1   
   168  163  170 1   
   169  163  171 1   
   170  164  165 1   
   171  164  172 1   
   172  164  173 1   
   173  165  166 1   
   174  165  167 1   
   175  174  175 1   
   176  174  179 1   
   177  175  176 1   
   178  175  177 1   
   179  175  178 1   
   180  181  182 1   
   181  181  183 1   
   182  184  185 1   
   183  184  186 1   
   184  187  188 1   
   185  187  189 1   
@<TRIPOS>SUBSTRUCTURE
     1 MOL         1 TEMP              0 ****  ****    0 ROOT
