@<TRIPOS>MOLECULE
MOL
  189   185     1     0     0
SMALL
resp


@<TRIPOS>ATOM
      1 C1         -0.3200    1.3500    6.4650 c3        1 MOL     -0.375718
      2 C2         -0.6220    1.3500    4.9400 c         1 MOL      0.709267
      3 O1          0.1560    1.7550    4.0900 o         1 MOL     -0.621467
      4 H1         -0.1390    2.3720    6.7990 hc        1 MOL      0.099728
      5 H2         -1.1720    0.9370    7.0040 hc        1 MOL      0.099728
      6 H3          0.5640    0.7420    6.6600 hc        1 MOL      0.099728
      7 N1         -1.8170    0.8380    4.5860 n         1 MOL     -0.541720
      8 C3         -2.4470    0.9440    3.2470 c3        1 MOL      0.054708
      9 C4         -2.7440    2.3910    2.8720 c         1 MOL      0.469467
     10 O2         -3.8400    2.8080    3.2210 o         1 MOL     -0.502642
     11 C5         -3.6340   -0.0160    3.1600 c3        1 MOL     -0.090675
     12 C6         -4.2250   -0.0700    1.7230 c         1 MOL      0.490477
     13 O3         -3.7230    0.4260    0.6430 o         1 MOL     -0.560793
     14 O4         -5.3010   -0.6870    1.5990 o         1 MOL     -0.560793
     15 H4         -2.3110    0.2440    5.2480 hn        1 MOL      0.305743
     16 H5         -1.7350    0.5560    2.5200 h1        1 MOL      0.054641
     17 H6         -4.3990    0.2400    3.8970 hc        1 MOL      0.053806
     18 H7         -3.3240   -1.0160    3.4750 hc        1 MOL      0.053806
     19 N2         -1.8150    3.0670    2.1890 n         1 MOL     -0.147279
     20 C7         -1.7730    4.5440    1.8640 c3        1 MOL     -0.065914
     21 C8         -3.0090    4.9870    1.1230 c         1 MOL      0.536569
     22 O5         -3.4540    6.1140    1.1850 o         1 MOL     -0.576999
     23 C9         -0.5070    5.0000    1.0360 c3        1 MOL     -0.181350
     24 C10        -0.5000    4.5580   -0.4000 c3        1 MOL      0.054002
     25 C11         0.8770    4.8870   -1.0560 c3        1 MOL      0.147188
     26 C12         0.7970    5.0560   -2.5860 c3        1 MOL     -0.056427
     27 N3         -0.3060    5.9300   -3.0600 n4        1 MOL     -0.185204
     28 H8         -1.0490    2.5290    1.7950 hn        1 MOL      0.230308
     29 H9         -1.7100    5.0530    2.8300 h1        1 MOL      0.105608
     30 H10         0.3400    4.5820    1.5940 hc        1 MOL      0.071968
     31 H11        -0.3650    6.0730    1.1430 hc        1 MOL      0.071968
     32 H12        -1.3230    5.0560   -0.9170 hc        1 MOL     -0.013446
     33 H13        -0.8190    3.5280   -0.5790 hc        1 MOL     -0.013446
     34 H14         1.6560    4.1520   -0.8730 hc        1 MOL     -0.027533
     35 H15         1.2640    5.8210   -0.6450 hc        1 MOL     -0.027533
     36 H16         0.6850    4.0390   -2.9480 hx        1 MOL      0.065733
     37 H17         1.6860    5.5730   -2.9710 hx        1 MOL      0.065733
     38 H18        -0.6990    6.5120   -2.3310 hn        1 MOL      0.268748
     39 H19        -0.0420    6.6010   -3.7620 hn        1 MOL      0.268748
     40 H20        -1.0890    5.3800   -3.3610 hn        1 MOL      0.268748
     41 N4         -3.5740    4.0860    0.3230 n         1 MOL     -0.124871
     42 C13        -4.6250    4.3650   -0.7290 c3        1 MOL      0.218154
     43 C14        -5.8860    3.5170   -0.5820 c         1 MOL      0.421727
     44 O6         -6.8820    3.8490   -1.1410 o         1 MOL     -0.508780
     45 C15        -4.0510    4.3810   -2.1530 c3        1 MOL     -0.162983
     46 C16        -3.0540    3.2730   -2.5370 c         1 MOL      1.055726
     47 O7         -2.3020    3.5750   -3.4970 o         1 MOL     -0.823876
     48 O8         -2.9390    2.2630   -1.8630 o         1 MOL     -0.823876
     49 H21        -3.2750    3.1270    0.4210 hn        1 MOL     -0.413622
     50 H22        -4.9580    5.3970   -0.5970 h1        1 MOL      0.059604
     51 H23        -3.5140    5.3330   -2.2170 hc        1 MOL     -0.000432
     52 H24        -4.9100    4.4310   -2.8260 hc        1 MOL     -0.000432
     53 N5         -5.9170    2.4280    0.2380 n         1 MOL     -0.264326
     54 C17        -7.1540    1.7940    0.6560 c3        1 MOL     -0.141512
     55 C18        -7.7160    0.7430   -0.2960 c         1 MOL      0.549448
     56 O9         -8.9390    0.7030   -0.5740 o         1 MOL     -0.600478
     57 H25        -5.0560    2.0810    0.6280 hn        1 MOL      0.339501
     58 H26        -7.9210    2.5270    0.8950 h1        1 MOL      0.086577
     59 H27        -7.0110    1.2510    1.5910 h1        1 MOL      0.086577
     60 N6         -6.8200   -0.0880   -0.7570 n         1 MOL     -0.231177
     61 C19        -7.1830   -1.2660   -1.6590 c3        1 MOL      0.004086
     62 C20        -6.9050   -2.6310   -1.0070 c         1 MOL      0.378551
     63 O10        -7.0560   -3.6860   -1.6680 o         1 MOL     -0.523955
     64 C21        -6.3220   -1.1020   -2.9440 c3        1 MOL     -0.167887
     65 C22        -4.7860   -0.9990   -2.6040 c         1 MOL      0.728618
     66 O11        -4.0860   -0.1340   -3.1580 o         1 MOL     -0.732412
     67 O12        -4.2360   -1.7190   -1.7580 o         1 MOL     -0.732412
     68 H28        -5.9080   -0.0200   -0.3360 hn        1 MOL      0.149926
     69 H29        -8.2340   -1.1670   -1.9320 h1        1 MOL      0.122708
     70 H30        -6.5710   -0.1790   -3.4650 hc        1 MOL      0.059542
     71 H31        -6.4780   -1.9860   -3.5630 hc        1 MOL      0.059542
     72 N7         -6.5290   -2.6730    0.2800 n         1 MOL     -0.233210
     73 C23        -6.2870   -3.9590    0.9810 c3        1 MOL     -0.150235
     74 C24        -4.9130   -4.5390    0.8030 c         1 MOL      0.551055
     75 O13        -4.7890   -5.7150    1.1350 o         1 MOL     -0.581391
     76 H32        -6.2550   -1.8150    0.7400 hn        1 MOL      0.183237
     77 H33        -7.0150   -4.7260    0.7050 h1        1 MOL      0.104748
     78 H34        -6.3440   -3.7800    2.0590 h1        1 MOL      0.104748
     79 N8         -3.9500   -3.8880    0.1990 n         1 MOL     -0.175095
     80 C25        -2.6580   -4.5750   -0.1030 c3        1 MOL     -0.417966
     81 C26        -1.4540   -3.6310    0.1100 c         1 MOL      0.824528
     82 O14        -1.6070   -2.4160   -0.1150 o         1 MOL     -0.714823
     83 C27        -2.5790   -4.9100   -1.5830 c3        1 MOL      0.358862
     84 C28        -3.6780   -5.8950   -2.0320 c3        1 MOL     -0.405321
     85 O15        -2.8370   -3.8410   -2.4590 oh        1 MOL     -0.589643
     86 H35        -4.0790   -3.0020   -0.2650 hn        1 MOL      0.223020
     87 H36        -2.6320   -5.5040    0.4760 h1        1 MOL      0.171004
     88 H37        -1.5550   -5.2240   -1.8020 h1        1 MOL      0.031907
     89 H38        -3.5980   -3.3520   -2.1100 ho        1 MOL      0.406984
     90 H39        -4.6820   -5.4730   -2.0000 hc        1 MOL      0.109347
     91 H40        -3.5420   -6.1290   -3.0910 hc        1 MOL      0.109347
     92 H41        -3.6450   -6.8690   -1.5310 hc        1 MOL      0.109347
     93 N9         -0.2880   -4.0700    0.7230 n         1 MOL     -0.610187
     94 C29         0.9680   -3.3830    1.0230 c3        1 MOL     -0.004585
     95 C30         2.0040   -3.6770   -0.1290 c         1 MOL      0.469457
     96 O16         2.4430   -4.8230   -0.3470 o         1 MOL     -0.550497
     97 C31         1.4170   -3.7890    2.4770 c3        1 MOL      0.111309
     98 C32         0.4780   -3.2550    3.5840 c3        1 MOL      0.039693
     99 C33         2.8470   -3.3180    2.6810 c3        1 MOL     -0.092192
    100 C34         0.9380   -3.4400    5.0230 c3        1 MOL     -0.167958
    101 H42        -0.2130   -5.0730    0.8440 hn        1 MOL      0.299502
    102 H43         0.7110   -2.3270    1.0530 h1        1 MOL      0.183657
    103 H44         1.5060   -4.8780    2.5150 hc        1 MOL      0.007378
    104 H45        -0.4310   -3.8380    3.4560 hc        1 MOL     -0.006148
    105 H46         0.2670   -2.2000    3.3880 hc        1 MOL     -0.006148
    106 H47         3.1490   -3.6420    3.6740 hc        1 MOL      0.005872
    107 H48         3.5890   -3.7640    2.0210 hc        1 MOL      0.005872
    108 H49         2.8250   -2.2300    2.6230 hc        1 MOL      0.005872
    109 H50         1.3600   -4.4400    5.1550 hc        1 MOL      0.045295
    110 H51         1.7220   -2.7390    5.3160 hc        1 MOL      0.045295
    111 H52         0.1370   -3.3180    5.7540 hc        1 MOL      0.045295
    112 N10         2.3120   -2.6330   -0.8550 n         1 MOL     -0.119802
    113 C35         3.3910   -2.5290   -1.7900 c3        1 MOL     -0.112134
    114 C36         4.7380   -2.4700   -1.0000 c         1 MOL      0.378872
    115 O17         4.7970   -2.0150    0.1690 o         1 MOL     -0.344240
    116 C37         3.3730   -1.2180   -2.6170 c3        1 MOL      0.126575
    117 C38         2.1950   -1.1680   -3.6180 c3        1 MOL     -0.264043
    118 O18         3.3500   -0.1760   -1.6660 oh        1 MOL     -0.498338
    119 H53         1.6730   -1.8770   -0.6800 hn        1 MOL      0.132298
    120 H54         3.4170   -3.4450   -2.3940 h1        1 MOL      0.091848
    121 H55         4.2810   -1.1580   -3.2150 h1        1 MOL      0.072478
    122 H56         2.4730   -0.1830   -1.2800 ho        1 MOL      0.366260
    123 H57         2.0760   -0.1300   -3.9250 hc        1 MOL      0.085535
    124 H58         2.1790   -1.7860   -4.5240 hc        1 MOL      0.085535
    125 H59         1.2710   -1.4260   -3.0940 hc        1 MOL      0.085535
    126 N11         5.9250   -2.7940   -1.5760 n         1 MOL     -0.332335
    127 C39         7.2490   -2.5040   -1.0160 c3        1 MOL     -0.149018
    128 C40         7.4520   -1.0700   -0.4560 c         1 MOL      0.448733
    129 O19         8.2030   -0.9620    0.5380 o         1 MOL     -0.516245
    130 C41         8.3470   -2.7910   -2.1360 c3        1 MOL      0.215809
    131 C42         8.3690   -4.2730   -2.5000 c3        1 MOL     -0.355955
    132 O20         8.0410   -2.1440   -3.3080 oh        1 MOL     -0.609235
    133 H60         5.9450   -2.9490   -2.5730 hn        1 MOL      0.278542
    134 H61         7.3920   -3.2230   -0.2050 h1        1 MOL      0.161738
    135 H62         9.3130   -2.4790   -1.7260 h1        1 MOL      0.054767
    136 H63         8.8470   -2.2940   -3.8120 ho        1 MOL      0.417983
    137 H64         9.2110   -4.4500   -3.1580 hc        1 MOL      0.105341
    138 H65         8.4560   -4.8970   -1.6050 hc        1 MOL      0.105341
    139 H66         7.4820   -4.6130   -3.0240 hc        1 MOL      0.105341
    140 N12         6.8250   -0.0570   -1.0280 n         1 MOL     -0.334776
    141 C43         6.9450    1.3050   -0.4600 c3        1 MOL     -0.038504
    142 C44         6.0940    1.4920    0.7950 c         1 MOL      0.367249
    143 O21         6.6290    1.9870    1.7690 o         1 MOL     -0.512222
    144 C45         6.5030    2.2840   -1.6240 c3        1 MOL      0.095624
    145 C46         6.4820    3.7470   -1.2570 c3        1 MOL      0.013147
    146 C47         7.7810    4.2900   -0.6970 c3        1 MOL     -0.030261
    147 C48         8.9560    3.8730   -1.5480 c3        1 MOL      0.038129
    148 N13        10.2540    4.0670   -0.8980 n4        1 MOL     -0.430067
    149 H67         6.3660   -0.2770   -1.9080 hn        1 MOL      0.268699
    150 H68         7.9560    1.6280   -0.2150 h1        1 MOL      0.089432
    151 H69         5.4810    2.0490   -1.9470 hc        1 MOL     -0.024115
    152 H70         7.1890    2.2510   -2.4660 hc        1 MOL     -0.024115
    153 H71         5.6240    3.9410   -0.6180 hc        1 MOL      0.019037
    154 H72         6.2960    4.2670   -2.1960 hc        1 MOL      0.019037
    155 H73         8.0040    4.0230    0.3410 hc        1 MOL      0.033049
    156 H74         7.6710    5.3680   -0.6300 hc        1 MOL      0.033049
    157 H75         8.8740    4.5930   -2.3670 hx        1 MOL      0.078403
    158 H76         8.8910    2.8370   -1.8560 hx        1 MOL      0.078403
    159 H77        10.2180    3.7250    0.0530 hn        1 MOL      0.354190
    160 H78        10.9700    3.6370   -1.4680 hn        1 MOL      0.354190
    161 H79        10.4020    5.0580   -0.7980 hn        1 MOL      0.354190
    162 N14         4.8510    0.9780    0.8720 n         1 MOL     -0.014633
    163 C49         3.9970    0.9600    2.0620 c3        1 MOL     -0.266550
    164 C50         4.4550    0.0820    3.1700 c         1 MOL      0.463610
    165 O22         4.1290    0.2540    4.3630 o         1 MOL     -0.543915
    166 C51         2.6080    0.4320    1.6540 c3        1 MOL     -0.028940
    167 C52         1.8070    1.3490    0.6540 c3        1 MOL     -0.054734
    168 C53         0.5980    0.5950    0.0980 c         1 MOL      0.534691
    169 O23         0.8330   -0.3290   -0.7500 o         1 MOL     -0.606205
    170 O24        -0.5570    1.0140    0.3570 o         1 MOL     -0.606205
    171 H80         4.5030    0.4800    0.0660 hn        1 MOL      0.034274
    172 H81         3.9790    1.9770    2.4420 h1        1 MOL      0.141406
    173 H82         2.0090    0.3060    2.5540 hc        1 MOL      0.098322
    174 H83         2.6930   -0.5770    1.2520 hc        1 MOL      0.098322
    175 H84         2.5120    1.7670   -0.0580 hc        1 MOL      0.043284
    176 H85         1.4800    2.2100    1.2340 hc        1 MOL      0.043284
    177 N15         5.2480   -0.9330    2.8290 n         1 MOL     -0.059952
    178 C54         5.9030   -1.8110    3.8980 c3        1 MOL     -0.337819
    179 H86         5.5670   -1.4930    4.8850 h1        1 MOL      0.124229
    180 H87         5.6210   -2.8520    3.7370 h1        1 MOL      0.124229
    181 H88         6.9870   -1.7140    3.8340 h1        1 MOL      0.124229
    182 H89         5.4950   -1.0960    1.8600 hn        1 MOL      0.169096
    183 Ca1        -2.1600   -0.1100   -1.3470 Ca        1 MOL      1.788756
    184 O25        -1.2310   -1.7510   -3.3720 oh        1 MOL     -0.850930
    185 H90        -1.0680   -1.6240   -4.2980 ho        1 MOL      0.400540
    186 H91        -1.8840   -2.4470   -3.3330 ho        1 MOL      0.400540
    187 O26        -0.6690    1.2760   -3.0650 oh        1 MOL     -0.850930
    188 H92        -0.0800    1.1560   -3.8060 ho        1 MOL      0.400540
    189 H93        -1.1340    2.0910   -3.2530 ho        1 MOL      0.400540
@<TRIPOS>BOND
     1    1    2 1   
     2    1    4 1   
     3    1    5 1   
     4    1    6 1   
     5    2    3 2   
     6    2    7 1   
     7    7    8 1   
     8    7   15 1   
     9    8    9 1   
    10    8   11 1   
    11    8   16 1   
    12    9   10 2   
    13    9   19 1   
    14   11   12 1   
    15   11   17 1   
    16   11   18 1   
    17   12   13 1   
    18   12   14 1   
    19   19   20 1   
    20   19   28 1   
    21   20   21 1   
    22   20   23 1   
    23   20   29 1   
    24   21   22 2   
    25   21   41 1   
    26   23   24 1   
    27   23   30 1   
    28   23   31 1   
    29   24   25 1   
    30   24   32 1   
    31   24   33 1   
    32   25   26 1   
    33   25   34 1   
    34   25   35 1   
    35   26   27 1   
    36   26   36 1   
    37   26   37 1   
    38   27   38 1   
    39   27   39 1   
    40   27   40 1   
    41   41   42 1   
    42   41   49 1   
    43   42   43 1   
    44   42   45 1   
    45   42   50 1   
    46   43   44 2   
    47   43   53 1   
    48   45   46 1   
    49   45   51 1   
    50   45   52 1   
    51   46   47 1   
    52   46   48 1   
    53   53   54 1   
    54   53   57 1   
    55   54   55 1   
    56   54   58 1   
    57   54   59 1   
    58   55   56 2   
    59   55   60 1   
    60   60   61 1   
    61   60   68 1   
    62   61   62 1   
    63   61   64 1   
    64   61   69 1   
    65   62   63 2   
    66   62   72 1   
    67   64   65 1   
    68   64   70 1   
    69   64   71 1   
    70   65   66 1   
    71   65   67 1   
    72   72   73 1   
    73   72   76 1   
    74   73   74 1   
    75   73   77 1   
    76   73   78 1   
    77   74   75 2   
    78   74   79 1   
    79   79   80 1   
    80   79   86 1   
    81   80   81 1   
    82   80   83 1   
    83   80   87 1   
    84   81   82 2   
    85   81   93 1   
    86   83   84 1   
    87   83   85 1   
    88   83   88 1   
    89   84   90 1   
    90   84   91 1   
    91   84   92 1   
    92   85   89 1   
    93   93   94 1   
    94   93  101 1   
    95   94   95 1   
    96   94   97 1   
    97   94  102 1   
    98   95   96 2   
    99   95  112 1   
   100   97   98 1   
   101   97   99 1   
   102   97  103 1   
   103   98  100 1   
   104   98  104 1   
   105   98  105 1   
   106   99  106 1   
   107   99  107 1   
   108   99  108 1   
   109  100  109 1   
   110  100  110 1   
   111  100  111 1   
   112  112  113 1   
   113  112  119 1   
   114  113  114 1   
   115  113  116 1   
   116  113  120 1   
   117  114  115 2   
   118  114  126 1   
   119  116  117 1   
   120  116  118 1   
   121  116  121 1   
   122  117  123 1   
   123  117  124 1   
   124  117  125 1   
   125  118  122 1   
   126  126  127 1   
   127  126  133 1   
   128  127  128 1   
   129  127  130 1   
   130  127  134 1   
   131  128  129 2   
   132  128  140 1   
   133  130  131 1   
   134  130  132 1   
   135  130  135 1   
   136  131  137 1   
   137  131  138 1   
   138  131  139 1   
   139  132  136 1   
   140  140  141 1   
   141  140  149 1   
   142  141  142 1   
   143  141  144 1   
   144  141  150 1   
   145  142  143 2   
   146  142  162 1   
   147  144  145 1   
   148  144  151 1   
   149  144  152 1   
   150  145  146 1   
   151  145  153 1   
   152  145  154 1   
   153  146  147 1   
   154  146  155 1   
   155  146  156 1   
   156  147  148 1   
   157  147  157 1   
   158  147  158 1   
   159  148  159 1   
   160  148  160 1   
   161  148  161 1   
   162  162  163 1   
   163  162  171 1   
   164  163  164 1   
   165  163  166 1   
   166  163  172 1   
   167  164  165 2   
   168  164  177 1   
   169  166  167 1   
   170  166  173 1   
   171  166  174 1   
   172  167  168 1   
   173  167  175 1   
   174  167  176 1   
   175  168  169 1   
   176  168  170 1   
   177  177  178 1   
   178  177  182 1   
   179  178  179 1   
   180  178  180 1   
   181  178  181 1   
   182  184  185 1   
   183  184  186 1   
   184  187  188 1   
   185  187  189 1   
@<TRIPOS>SUBSTRUCTURE
     1 MOL         1 TEMP              0 ****  ****    0 ROOT
