@<TRIPOS>MOLECULE
MOL
  175   173     1     0     0
SMALL
resp


@<TRIPOS>ATOM
      1 C1          0.0450    4.4820    5.4990 c3        1 MOL     -0.398130
      2 C2         -0.4470    4.1360    4.0470 c         1 MOL      0.746948
      3 O1          0.2750    4.0810    3.0360 o         1 MOL     -0.625580
      4 H1          0.0610    5.5650    5.6280 hc        1 MOL      0.104663
      5 H2         -0.6340    4.0400    6.2280 hc        1 MOL      0.104663
      6 H3          1.0480    4.0840    5.6480 hc        1 MOL      0.104663
      7 N1         -1.7350    3.8220    3.8560 n         1 MOL     -0.725833
      8 C3         -2.3110    3.4940    2.5650 c3        1 MOL      0.277899
      9 C4         -2.3370    4.6450    1.5890 c         1 MOL      0.543885
     10 O2         -3.1220    5.6160    1.7370 o         1 MOL     -0.611220
     11 C5         -3.7100    2.8460    2.8090 c3        1 MOL     -0.307128
     12 C6         -4.4270    2.2770    1.5840 c         1 MOL      0.704040
     13 O3         -5.5910    1.7610    1.8090 o         1 MOL     -0.660109
     14 O4         -3.7770    2.0330    0.5200 o         1 MOL     -0.660109
     15 H4         -2.3070    3.7140    4.6860 hn        1 MOL      0.342518
     16 H5         -1.6350    2.7420    2.1790 h1        1 MOL      0.050782
     17 H6         -4.3660    3.5230    3.3620 hc        1 MOL      0.059422
     18 H7         -3.5020    2.1000    3.5800 hc        1 MOL      0.059422
     19 N2         -1.4860    4.4480    0.5650 n         1 MOL     -0.333167
     20 C7         -1.4480    5.3030   -0.6050 c3        1 MOL      0.088630
     21 C8         -2.1470    4.7210   -1.8540 c         1 MOL      0.531073
     22 O5         -1.8370    5.1950   -2.9110 o         1 MOL     -0.547264
     23 C9          0.0590    5.6670   -0.8680 c3        1 MOL     -0.164126
     24 H8         -1.0330    3.5520    0.5080 hn        1 MOL      0.329676
     25 H9         -1.9810    6.2380   -0.4330 h1        1 MOL      0.045449
     26 H10         0.1780    6.5170   -1.5500 hc        1 MOL      0.037751
     27 H11         0.5070    5.9770    0.0710 hc        1 MOL      0.037751
     28 H12         0.5870    4.8420   -1.3440 hc        1 MOL      0.037751
     29 N3         -3.0970    3.7490   -1.7020 n         1 MOL     -0.308044
     30 C10        -4.0160    3.5170   -2.8480 c3        1 MOL     -0.171283
     31 C11        -5.4550    2.8660   -2.5950 c         1 MOL      0.533737
     32 O6         -6.2310    2.7360   -3.5210 o         1 MOL     -0.553993
     33 C12        -3.4150    2.5970   -3.9160 c3        1 MOL     -0.006460
     34 C13        -3.1020    1.1820   -3.4540 c         1 MOL      0.707463
     35 O7         -3.3370    0.7340   -2.3210 o         1 MOL     -0.682562
     36 O8         -2.5070    0.4920   -4.2300 o         1 MOL     -0.682562
     37 H13        -3.3660    3.5520   -0.7430 hn        1 MOL      0.152046
     38 H14        -4.2750    4.4970   -3.2500 h1        1 MOL      0.092405
     39 H15        -2.6040    2.9550   -4.5530 hc        1 MOL      0.018079
     40 H16        -4.1380    2.4010   -4.7120 hc        1 MOL      0.018079
     41 N4         -5.7710    2.4350   -1.3840 n         1 MOL     -0.345819
     42 C14        -7.0850    1.7350   -1.0840 c3        1 MOL     -0.264829
     43 C15        -7.1410    0.3020   -1.7410 c         1 MOL      0.528353
     44 O9         -8.1960   -0.3020   -1.7820 o         1 MOL     -0.594589
     45 H17        -5.0840    2.3180   -0.6570 hn        1 MOL      0.270167
     46 H18        -7.9510    2.3500   -1.3260 h1        1 MOL      0.134416
     47 H19        -7.0390    1.4150   -0.0480 h1        1 MOL      0.134416
     48 N5         -5.9520   -0.3570   -1.9450 n         1 MOL     -0.230641
     49 C16        -5.9680   -1.7370   -2.4770 c3        1 MOL     -0.008632
     50 C17        -6.1410   -2.8970   -1.3830 c         1 MOL      0.430028
     51 O10        -6.3360   -4.0460   -1.8480 o         1 MOL     -0.532796
     52 C18        -4.7460   -1.9960   -3.3610 c3        1 MOL     -0.055865
     53 C19        -3.4500   -2.2500   -2.6370 c         1 MOL      0.658288
     54 N6         -2.4380   -2.6110   -3.2910 n         1 MOL     -0.701122
     55 O11        -3.3270   -2.2460   -1.4560 o         1 MOL     -0.473919
     56 H20        -5.0630    0.1110   -1.8990 hn        1 MOL      0.203379
     57 H21        -6.8800   -1.7930   -3.0710 h1        1 MOL      0.086696
     58 H22        -4.5880   -1.1080   -3.9660 hc        1 MOL      0.011890
     59 H23        -5.0000   -2.8660   -3.9670 hc        1 MOL      0.011890
     60 H24        -2.3660   -2.7160   -4.2960 hn        1 MOL      0.342587
     61 H25        -1.5290   -2.7840   -2.8990 hn        1 MOL      0.342587
     62 N7         -6.2360   -2.5710   -0.0980 n         1 MOL     -0.251913
     63 C20        -6.5160   -3.6100    0.9400 c3        1 MOL     -0.225647
     64 C21        -5.3120   -4.0820    1.6680 c         1 MOL      0.636282
     65 O12        -5.4310   -4.7870    2.6660 o         1 MOL     -0.611471
     66 H26        -6.1200   -1.6200    0.2120 hn        1 MOL      0.254557
     67 H27        -7.1080   -4.4470    0.5650 h1        1 MOL      0.116083
     68 H28        -7.0690   -3.0460    1.6920 h1        1 MOL      0.116083
     69 N8         -4.0770   -3.6780    1.1970 n         1 MOL     -0.191534
     70 C22        -2.7700   -4.2820    1.5440 c3        1 MOL     -0.013501
     71 C23        -1.6190   -3.3370    1.8290 c         1 MOL      0.390359
     72 O13        -1.6760   -2.2340    1.2180 o         1 MOL     -0.540195
     73 C24        -2.3800   -5.2000    0.3580 c3        1 MOL      0.538044
     74 C25        -2.6310   -6.6570    0.5590 c3        1 MOL     -0.356629
     75 O14        -3.0510   -4.8100   -0.8330 oh        1 MOL     -0.556424
     76 H29        -4.0020   -2.8720    0.5820 hn        1 MOL     -0.098179
     77 H30        -2.8770   -4.8170    2.4840 h1        1 MOL      0.022098
     78 H31        -1.3100   -5.0280    0.2530 h1        1 MOL     -0.055804
     79 H32        -2.9660   -3.8560   -0.8700 ho        1 MOL      0.271047
     80 H33        -1.8300   -7.1160    1.1360 hc        1 MOL      0.076331
     81 H34        -3.5490   -6.7730    1.1430 hc        1 MOL      0.076331
     82 H35        -2.6580   -7.0790   -0.4490 hc        1 MOL      0.076331
     83 N9         -0.6040   -3.7270    2.5890 n         1 MOL     -0.318879
     84 C26         0.7230   -3.0010    2.6840 c3        1 MOL     -0.049300
     85 C27         1.6610   -3.3710    1.4850 c         1 MOL      0.613295
     86 O15         1.9020   -4.5640    1.2890 o         1 MOL     -0.579042
     87 C28         1.3260   -3.2300    4.1000 c3        1 MOL     -0.051342
     88 C29         0.4690   -2.4730    5.1950 c3        1 MOL     -0.008576
     89 C30         2.8190   -2.7920    4.2030 c3        1 MOL     -0.215930
     90 C31         0.6320   -0.9270    5.1790 c3        1 MOL      0.043329
     91 H36        -0.6490   -4.6680    2.9550 hn        1 MOL      0.253352
     92 H37         0.5640   -1.9260    2.6550 h1        1 MOL      0.188701
     93 H38         1.3550   -4.2880    4.3560 hc        1 MOL      0.044591
     94 H39         0.7720   -2.9000    6.1490 hc        1 MOL     -0.004951
     95 H40        -0.5690   -2.7940    5.0520 hc        1 MOL     -0.004951
     96 H41         3.4910   -3.4470    3.6370 hc        1 MOL      0.059533
     97 H42         3.0050   -1.8160    3.7520 hc        1 MOL      0.059533
     98 H43         3.0580   -2.6270    5.2500 hc        1 MOL      0.059533
     99 H44         0.1310   -0.7020    4.2430 hc        1 MOL     -0.011438
    100 H45        -0.0360   -0.4900    5.9230 hc        1 MOL     -0.011438
    101 H46         1.6630   -0.5930    5.3050 hc        1 MOL     -0.011438
    102 N10         1.9630   -2.3640    0.6300 n         1 MOL     -0.306833
    103 C32         2.7230   -2.3550   -0.5820 c3        1 MOL     -0.053096
    104 C33         4.0820   -1.6960   -0.2740 c         1 MOL      0.602835
    105 O16         4.2210   -1.0130    0.7210 o         1 MOL     -0.461939
    106 C34         2.0620   -1.4680   -1.6310 c3        1 MOL     -0.306598
    107 C35         0.6000   -1.8430   -2.0260 c         1 MOL      0.749906
    108 O17        -0.3060   -1.1290   -1.4230 o         1 MOL     -0.675324
    109 O18         0.2930   -2.6130   -2.9790 o         1 MOL     -0.675324
    110 H47         1.5530   -1.4650    0.8250 hn        1 MOL      0.194053
    111 H48         2.8240   -3.3730   -0.9650 h1        1 MOL      0.079974
    112 H49         2.7610   -1.4440   -2.4750 hc        1 MOL      0.108664
    113 H50         2.0470   -0.4310   -1.2990 hc        1 MOL      0.108664
    114 N11         5.0150   -1.9860   -1.1840 n         1 MOL     -0.686896
    115 C36         6.4680   -1.6570   -1.0990 c3        1 MOL      0.443529
    116 C37         6.6660   -0.0730   -0.9810 c         1 MOL      0.295742
    117 O19         7.4240    0.2050   -0.0030 o         1 MOL     -0.516429
    118 C38         7.2680   -2.2260   -2.2150 c3        1 MOL     -0.404912
    119 C39         8.7350   -1.8980   -2.3020 ca        1 MOL      0.241141
    120 C40         9.6300   -2.3190   -1.2620 ca        1 MOL     -0.279985
    121 C41         9.2490   -1.2860   -3.4710 ca        1 MOL     -0.279985
    122 C42        10.9700   -1.9140   -1.3960 ca        1 MOL      0.018790
    123 C43        10.6140   -1.0060   -3.5550 ca        1 MOL      0.018790
    124 C44        11.4530   -1.3670   -2.5510 ca        1 MOL     -0.232503
    125 H51         4.7590   -2.5680   -1.9770 hn        1 MOL      0.333703
    126 H52         6.7580   -2.0280   -0.1040 h1        1 MOL      0.041731
    127 H53         6.8630   -1.9530   -3.1940 hc        1 MOL      0.105685
    128 H54         7.2670   -3.3080   -2.0770 hc        1 MOL      0.105685
    129 H55         9.2680   -2.8760   -0.4110 ha        1 MOL      0.148800
    130 H56         8.6400   -1.0590   -4.3350 ha        1 MOL      0.148800
    131 H57        11.6280   -2.2230   -0.5980 ha        1 MOL      0.079598
    132 H58        10.9380   -0.5220   -4.4690 ha        1 MOL      0.079598
    133 H59        12.5250   -1.2160   -2.6200 ha        1 MOL      0.116533
    134 N12         5.9150    0.8280   -1.6450 n         1 MOL     -0.024352
    135 C45         6.0160    2.2940   -1.4760 c3        1 MOL     -0.028468
    136 C46         5.4350    2.7570   -0.1540 c         1 MOL      0.334754
    137 O20         5.9000    3.7290    0.3440 o         1 MOL     -0.516354
    138 C47         5.3370    2.9460   -2.6660 c3        1 MOL     -0.184246
    139 C48         5.5320    1.9190   -3.7810 c3        1 MOL     -0.010257
    140 C49         5.3570    0.6700   -3.0040 c3        1 MOL      0.160636
    141 H60         7.0810    2.5160   -1.4390 h1        1 MOL      0.082067
    142 H61         4.2640    3.0510   -2.5180 hc        1 MOL      0.096025
    143 H62         5.6870    3.9620   -2.8840 hc        1 MOL      0.096025
    144 H63         4.7820    1.9970   -4.5750 hc        1 MOL      0.025647
    145 H64         6.5180    1.9970   -4.2350 hc        1 MOL      0.025647
    146 H65         4.3580    0.2770   -2.8570 h1        1 MOL     -0.040077
    147 H66         5.9250   -0.0890   -3.5340 h1        1 MOL     -0.040077
    148 N13         4.6140    1.9530    0.5000 n         1 MOL     -0.003320
    149 C50         4.0010    2.3280    1.7990 c3        1 MOL     -0.242041
    150 C51         4.8160    1.7330    2.9490 c         1 MOL      0.536684
    151 O21         4.8750    2.2280    4.0280 o         1 MOL     -0.563072
    152 C52         2.5290    1.8010    1.9130 c3        1 MOL      0.225096
    153 C53         1.6700    2.3440    0.7200 c3        1 MOL      0.157451
    154 C54         0.3400    1.5240    0.4740 c         1 MOL      0.586941
    155 O22         0.1720    0.4500    0.9590 o         1 MOL     -0.754504
    156 O23        -0.5800    1.9540   -0.3160 o         1 MOL     -0.754504
    157 H67         4.4940    1.0360    0.1050 hn        1 MOL      0.042174
    158 H68         3.9260    3.4150    1.8870 h1        1 MOL      0.128554
    159 H69         2.0720    2.0550    2.8670 hc        1 MOL     -0.059584
    160 H70         2.5090    0.7170    1.9540 hc        1 MOL     -0.059584
    161 H71         2.3040    2.3700   -0.1680 hc        1 MOL     -0.035824
    162 H72         1.4280    3.4080    0.8030 hc        1 MOL     -0.035824
    163 N14         5.4990    0.5860    2.7150 n         1 MOL     -0.175068
    164 C55         6.5190    0.0850    3.6790 c3        1 MOL     -0.180352
    165 H73         6.6880    0.8370    4.4510 h1        1 MOL      0.076056
    166 H74         6.1620   -0.8350    4.1420 h1        1 MOL      0.076056
    167 H75         7.4530   -0.1110    3.1520 h1        1 MOL      0.076056
    168 H76         5.3330    0.1150    1.8410 hn        1 MOL      0.171456
    169 Ca1        -2.2580   -0.0630   -0.1290 Ca        1 MOL      1.637793
    170 O24        -1.9970    0.1550    2.6360 oh        1 MOL     -0.692980
    171 H77        -2.3860   -0.1410    3.4640 ho        1 MOL      0.362853
    172 H78        -1.0640   -0.0610    2.7170 ho        1 MOL      0.362853
    173 O25        -4.7100   -0.5710    0.9880 oh        1 MOL     -0.692980
    174 H79        -4.9500    0.3520    1.1050 ho        1 MOL      0.362853
    175 H80        -4.6490   -0.9200    1.8770 ho        1 MOL      0.362853
@<TRIPOS>BOND
     1    1    2 1   
     2    1    4 1   
     3    1    5 1   
     4    1    6 1   
     5    2    3 2   
     6    2    7 1   
     7    7    8 1   
     8    7   15 1   
     9    8    9 1   
    10    8   11 1   
    11    8   16 1   
    12    9   10 2   
    13    9   19 1   
    14   11   12 1   
    15   11   17 1   
    16   11   18 1   
    17   12   13 1   
    18   12   14 1   
    19   19   20 1   
    20   19   24 1   
    21   20   21 1   
    22   20   23 1   
    23   20   25 1   
    24   21   22 2   
    25   21   29 1   
    26   23   26 1   
    27   23   27 1   
    28   23   28 1   
    29   29   30 1   
    30   29   37 1   
    31   30   31 1   
    32   30   33 1   
    33   30   38 1   
    34   31   32 2   
    35   31   41 1   
    36   33   34 1   
    37   33   39 1   
    38   33   40 1   
    39   34   35 1   
    40   34   36 1   
    41   41   42 1   
    42   41   45 1   
    43   42   43 1   
    44   42   46 1   
    45   42   47 1   
    46   43   44 2   
    47   43   48 1   
    48   48   49 1   
    49   48   56 1   
    50   49   50 1   
    51   49   52 1   
    52   49   57 1   
    53   50   51 2   
    54   50   62 1   
    55   52   53 1   
    56   52   58 1   
    57   52   59 1   
    58   53   54 1   
    59   53   55 2   
    60   54   60 1   
    61   54   61 1   
    62   62   63 1   
    63   62   66 1   
    64   63   64 1   
    65   63   67 1   
    66   63   68 1   
    67   64   65 2   
    68   64   69 1   
    69   69   70 1   
    70   69   76 1   
    71   70   71 1   
    72   70   73 1   
    73   70   77 1   
    74   71   72 2   
    75   71   83 1   
    76   73   74 1   
    77   73   75 1   
    78   73   78 1   
    79   74   80 1   
    80   74   81 1   
    81   74   82 1   
    82   75   79 1   
    83   83   84 1   
    84   83   91 1   
    85   84   85 1   
    86   84   87 1   
    87   84   92 1   
    88   85   86 2   
    89   85  102 1   
    90   87   88 1   
    91   87   89 1   
    92   87   93 1   
    93   88   90 1   
    94   88   94 1   
    95   88   95 1   
    96   89   96 1   
    97   89   97 1   
    98   89   98 1   
    99   90   99 1   
   100   90  100 1   
   101   90  101 1   
   102  102  103 1   
   103  102  110 1   
   104  103  104 1   
   105  103  106 1   
   106  103  111 1   
   107  104  105 2   
   108  104  114 1   
   109  106  107 1   
   110  106  112 1   
   111  106  113 1   
   112  107  108 1   
   113  107  109 1   
   114  114  115 1   
   115  114  125 1   
   116  115  116 1   
   117  115  118 1   
   118  115  126 1   
   119  116  117 2   
   120  116  134 1   
   121  118  119 1   
   122  118  127 1   
   123  118  128 1   
   124  119  120 ar  
   125  119  121 ar  
   126  120  122 ar  
   127  120  129 1   
   128  121  123 ar  
   129  121  130 1   
   130  122  124 ar  
   131  122  131 1   
   132  123  124 ar  
   133  123  132 1   
   134  124  133 1   
   135  134  135 1   
   136  134  140 1   
   137  135  136 1   
   138  135  138 1   
   139  135  141 1   
   140  136  137 2   
   141  136  148 1   
   142  138  139 1   
   143  138  142 1   
   144  138  143 1   
   145  139  140 1   
   146  139  144 1   
   147  139  145 1   
   148  140  146 1   
   149  140  147 1   
   150  148  149 1   
   151  148  157 1   
   152  149  150 1   
   153  149  152 1   
   154  149  158 1   
   155  150  151 2   
   156  150  163 1   
   157  152  153 1   
   158  152  159 1   
   159  152  160 1   
   160  153  154 1   
   161  153  161 1   
   162  153  162 1   
   163  154  155 1   
   164  154  156 1   
   165  163  164 1   
   166  163  168 1   
   167  164  165 1   
   168  164  166 1   
   169  164  167 1   
   170  170  171 1   
   171  170  172 1   
   172  173  174 1   
   173  173  175 1   
@<TRIPOS>SUBSTRUCTURE
     1 MOL         1 TEMP              0 ****  ****    0 ROOT
