@<TRIPOS>MOLECULE
MOL
  182   178     1     0     0
SMALL
resp


@<TRIPOS>ATOM
      1 C1         -2.0250   -2.0700    6.0570 c3        1 MOL     -0.357910
      2 C2         -1.5100   -2.1610    4.5870 c         1 MOL      0.797612
      3 O1         -2.2620   -2.4010    3.7100 o         1 MOL     -0.594790
      4 H1         -3.0230   -2.5050    6.1190 hc        1 MOL      0.088566
      5 H2         -1.3490   -2.6180    6.7140 hc        1 MOL      0.088566
      6 H3         -2.0660   -1.0250    6.3650 hc        1 MOL      0.088566
      7 N1         -0.1500   -2.0330    4.4030 n         1 MOL     -0.692424
      8 C3          0.5010   -2.0410    3.0490 c3        1 MOL      0.087250
      9 C4          0.4590   -3.4430    2.3610 c         1 MOL      0.598684
     10 O2          1.0360   -4.4330    2.7070 o         1 MOL     -0.565295
     11 C5          1.9810   -1.5270    3.1890 c3        1 MOL     -0.285129
     12 C6          2.8210   -1.3710    1.9560 c         1 MOL      0.766196
     13 O3          2.3440   -1.6130    0.8370 o         1 MOL     -0.729398
     14 O4          4.0280   -1.0000    2.0070 o         1 MOL     -0.729398
     15 H4          0.4310   -1.9550    5.2260 hn        1 MOL      0.346425
     16 H5         -0.0200   -1.3860    2.3410 h1        1 MOL      0.027592
     17 H6          2.5390   -2.2420    3.8050 hc        1 MOL      0.092086
     18 H7          2.0250   -0.5480    3.6560 hc        1 MOL      0.092086
     19 N2         -0.3300   -3.4360    1.3140 n         1 MOL     -0.180526
     20 C7         -0.8010   -4.7010    0.6900 c3        1 MOL     -0.303836
     21 C8          0.3140   -5.3970   -0.1990 c         1 MOL      0.673133
     22 O5          0.1600   -6.5530   -0.4660 o         1 MOL     -0.583688
     23 C9         -2.0170   -4.3150   -0.1730 c3        1 MOL      0.051642
     24 C10        -2.6310   -5.6780   -0.6410 c3        1 MOL     -0.068154
     25 C11        -4.1100   -5.3760   -1.0660 c3        1 MOL      0.226127
     26 C12        -4.7220   -6.6420   -1.7130 c3        1 MOL     -0.027971
     27 N3         -5.9100   -6.2250   -2.5110 n4        1 MOL     -0.437790
     28 H8         -0.9130   -2.6230    1.1700 hn        1 MOL      0.237141
     29 H9         -1.1020   -5.3600    1.5020 h1        1 MOL      0.157717
     30 H10        -1.7970   -3.6570   -1.0150 hc        1 MOL      0.064494
     31 H11        -2.6910   -3.7490    0.4710 hc        1 MOL      0.064494
     32 H12        -2.6490   -6.4760    0.1060 hc        1 MOL      0.009713
     33 H13        -2.1170   -5.9590   -1.5570 hc        1 MOL      0.009713
     34 H14        -4.0530   -4.5890   -1.8230 hc        1 MOL     -0.032075
     35 H15        -4.7030   -4.9870   -0.2440 hc        1 MOL     -0.032075
     36 H16        -4.9130   -7.3200   -0.8780 hx        1 MOL      0.102188
     37 H17        -4.0630   -7.1980   -2.3730 hx        1 MOL      0.102188
     38 H18        -5.6520   -5.6970   -3.3300 hn        1 MOL      0.345230
     39 H19        -6.3760   -7.0640   -2.8120 hn        1 MOL      0.345230
     40 H20        -6.5290   -5.6410   -1.9660 hn        1 MOL      0.345230
     41 N4          1.4410   -4.7320   -0.4310 n         1 MOL     -0.326564
     42 C13         2.6330   -5.3140   -1.1150 c3        1 MOL     -0.058084
     43 C14         3.9970   -5.0330   -0.4610 c         1 MOL      0.460065
     44 O6          4.9590   -5.5920   -0.8530 o         1 MOL     -0.513998
     45 C15         2.6390   -4.9180   -2.5460 c3        1 MOL     -0.144417
     46 C16         2.6890   -3.3820   -2.7970 c         1 MOL      0.767899
     47 O7          2.5330   -3.0330   -3.9850 o         1 MOL     -0.733702
     48 O8          2.7330   -2.5660   -1.8800 o         1 MOL     -0.733702
     49 H21         1.5740   -3.8140   -0.0180 hn        1 MOL      0.048725
     50 H22         2.4460   -6.3870   -1.1670 h1        1 MOL      0.121765
     51 H23         1.7050   -5.2530   -2.9960 hc        1 MOL      0.047859
     52 H24         3.4150   -5.3920   -3.1580 hc        1 MOL      0.047859
     53 N5          3.9520   -4.2350    0.6160 n         1 MOL     -0.141600
     54 C17         5.1930   -3.9420    1.3860 c3        1 MOL     -0.352610
     55 C18         6.0750   -2.9480    0.6130 c         1 MOL      0.638981
     56 O9          7.1950   -2.7710    1.0980 o         1 MOL     -0.549985
     57 H25         3.0530   -3.8860    0.9320 hn        1 MOL      0.202210
     58 H26         5.8030   -4.8240    1.5550 h1        1 MOL      0.157906
     59 H27         4.8180   -3.3900    2.2480 h1        1 MOL      0.157906
     60 N6          5.5850   -2.2600   -0.4680 n         1 MOL     -0.382244
     61 C19         6.5160   -1.3740   -1.1790 c3        1 MOL     -0.081542
     62 C20         7.0190   -0.1860   -0.3660 c         1 MOL      0.452662
     63 O10         8.0700    0.3660   -0.7210 o         1 MOL     -0.566122
     64 C21         5.8280   -0.8900   -2.3780 c3        1 MOL     -0.125350
     65 C22         4.9260    0.3450   -2.2850 c         1 MOL      0.408639
     66 N7          5.2320    1.3440   -3.1160 n         1 MOL     -0.753387
     67 O11         4.0670    0.4730   -1.4160 o         1 MOL     -0.300044
     68 H28         4.6000   -2.2210   -0.6510 hn        1 MOL      0.247293
     69 H29         7.3150   -1.9850   -1.5970 h1        1 MOL      0.132676
     70 H30         5.2900   -1.6530   -2.9400 hc        1 MOL      0.089570
     71 H31         6.6210   -0.7560   -3.1090 hc        1 MOL      0.089570
     72 H32         5.9520    1.1980   -3.8120 hn        1 MOL      0.373559
     73 H33         4.6210    2.1510   -3.0240 hn        1 MOL      0.373559
     74 N8          6.3400    0.2160    0.7080 n         1 MOL     -0.203912
     75 C23         6.4290    1.4420    1.5630 c3        1 MOL      0.034682
     76 C24         5.2470    2.4140    1.6550 c         1 MOL      0.408787
     77 O12         5.3260    3.3580    2.4360 o         1 MOL     -0.539980
     78 H34         5.5000   -0.3170    0.8900 hn        1 MOL      0.240620
     79 H35         7.2590    1.9600    1.0840 h1        1 MOL      0.055423
     80 H36         6.7650    1.2510    2.5840 h1        1 MOL      0.055423
     81 N9          4.2940    2.3110    0.7280 n         1 MOL     -0.202685
     82 C25         3.1360    3.2710    0.6790 c3        1 MOL      0.683590
     83 C26         1.7430    2.6320    0.7780 c         1 MOL      0.077829
     84 O13         1.6240    1.4160    0.5220 o         1 MOL     -0.575414
     85 C27         3.2420    4.1110   -0.5700 c3        1 MOL     -0.146428
     86 C28         4.4210    5.0700   -0.6150 ca        1 MOL      0.032800
     87 C29         4.2740    6.4160   -0.1950 ca        1 MOL     -0.214837
     88 C30         5.6570    4.6710   -1.1380 ca        1 MOL     -0.214837
     89 C31         5.4020    7.2730   -0.3070 ca        1 MOL     -0.213005
     90 C32         6.7870    5.5670   -1.2820 ca        1 MOL     -0.213005
     91 C33         6.6290    6.9130   -0.9010 ca        1 MOL      0.327992
     92 O14         7.6590    7.7180   -1.1090 oh        1 MOL     -0.485866
     93 H37         4.2970    1.6280   -0.0170 hn        1 MOL      0.006677
     94 H38         3.2810    3.9560    1.5080 h1        1 MOL     -0.069469
     95 H39         2.3860    4.7830   -0.6560 hc        1 MOL      0.031034
     96 H40         3.3050    3.3680   -1.3630 hc        1 MOL      0.031034
     97 H41         3.3630    6.7070    0.3020 ha        1 MOL      0.149301
     98 H42         5.7570    3.6550   -1.5000 ha        1 MOL      0.149301
     99 H43         5.4210    8.2990    0.0320 ha        1 MOL      0.134636
    100 H44         7.7170    5.2370   -1.7110 ha        1 MOL      0.134636
    101 H45         8.2990    7.2930   -1.6840 ho        1 MOL      0.371343
    102 N10         0.7120    3.3520    1.2580 n         1 MOL     -0.416416
    103 C34        -0.7010    2.9020    1.3590 c3        1 MOL     -0.035553
    104 C35        -1.5800    3.9640    0.6380 c         1 MOL      0.460804
    105 O15        -1.4510    5.1560    0.7040 o         1 MOL     -0.513546
    106 C36        -1.1440    2.7740    2.8240 c3        1 MOL      0.123585
    107 C37        -0.2160    1.8650    3.6520 c3        1 MOL      0.085408
    108 C38        -2.6640    2.3840    2.9530 c3        1 MOL     -0.255187
    109 C39        -0.2560    2.3490    5.1180 c3        1 MOL     -0.281162
    110 H46         0.9070    4.2700    1.6330 hn        1 MOL      0.293758
    111 H47        -0.9030    1.9530    0.8830 h1        1 MOL      0.122862
    112 H48        -1.0920    3.7710    3.2470 hc        1 MOL      0.023581
    113 H49         0.8260    1.9170    3.3300 hc        1 MOL      0.054860
    114 H50        -0.5660    0.8320    3.6860 hc        1 MOL      0.054860
    115 H51        -2.9300    2.4190    4.0120 hc        1 MOL      0.046163
    116 H52        -3.3000    3.1000    2.4310 hc        1 MOL      0.046163
    117 H53        -2.9070    1.3670    2.6660 hc        1 MOL      0.046163
    118 H54         0.1850    1.6240    5.7980 hc        1 MOL      0.060250
    119 H55         0.4020    3.2240    5.1050 hc        1 MOL      0.060250
    120 H56        -1.2480    2.7060    5.3970 hc        1 MOL      0.060250
    121 N11        -2.5160    3.3630   -0.1590 n         1 MOL     -0.160713
    122 C40        -3.5420    4.0520   -0.8940 c3        1 MOL      0.019267
    123 C41        -4.9670    3.7590   -0.4610 c         1 MOL      0.342325
    124 O16        -5.1110    2.9830    0.5070 o         1 MOL     -0.348801
    125 C42        -3.3980    3.5690   -2.3580 c3        1 MOL     -0.120681
    126 O17        -3.9600    2.2910   -2.5300 oh        1 MOL     -0.528629
    127 H57        -2.6210    2.3530   -0.1010 hn        1 MOL      0.258691
    128 H58        -3.3290    5.1140   -0.9010 h1        1 MOL      0.075200
    129 H59        -2.3400    3.6230   -2.6220 h1        1 MOL      0.089455
    130 H60        -3.9420    4.2230   -3.0390 h1        1 MOL      0.089455
    131 H61        -3.3820    1.7760   -3.1060 ho        1 MOL      0.415245
    132 N12        -6.0140    4.3920   -0.9710 n         1 MOL     -0.320366
    133 C43        -7.3900    4.2480   -0.5440 c3        1 MOL      0.051089
    134 C44        -7.9830    2.8500   -0.7160 c         1 MOL      0.467899
    135 O18        -8.6970    2.3190    0.1470 o         1 MOL     -0.499862
    136 C45        -8.2080    5.2900   -1.2710 c3        1 MOL     -0.329012
    137 H62        -5.8610    4.9590   -1.7930 hn        1 MOL      0.263614
    138 H63        -7.3570    4.5260    0.5110 h1        1 MOL      0.113503
    139 H64        -9.2710    5.1650   -1.0660 hc        1 MOL      0.103593
    140 H65        -7.8490    6.2870   -1.0160 hc        1 MOL      0.103593
    141 H66        -8.1550    5.1520   -2.3520 hc        1 MOL      0.103593
    142 N13        -7.6570    2.1840   -1.8630 n         1 MOL     -0.295736
    143 C46        -8.2390    0.8740   -2.1440 c3        1 MOL      0.019947
    144 C47        -7.5700   -0.1560   -1.2410 c         1 MOL      0.393098
    145 O19        -8.1630   -1.0920   -0.7360 o         1 MOL     -0.490193
    146 C48        -7.9680    0.5320   -3.5620 c3        1 MOL     -0.234477
    147 H67        -7.1160    2.6660   -2.5630 hn        1 MOL      0.244718
    148 H68        -9.3140    0.9090   -1.9390 h1        1 MOL      0.118855
    149 H69        -8.3210   -0.4750   -3.7980 hc        1 MOL      0.070102
    150 H70        -8.4350    1.2580   -4.2250 hc        1 MOL      0.070102
    151 H71        -6.9150    0.4860   -3.8440 hc        1 MOL      0.070102
    152 N14        -6.2320   -0.0110   -0.9820 n         1 MOL     -0.184158
    153 C49        -5.4520   -0.7170    0.0600 c3        1 MOL     -0.099495
    154 C50        -6.1710   -0.6100    1.4310 c         1 MOL      0.463042
    155 O20        -6.3280   -1.5480    2.1980 o         1 MOL     -0.550126
    156 C51        -3.9770   -0.3240    0.1410 c3        1 MOL      0.041773
    157 C52        -3.0940   -0.6170   -1.0540 c3        1 MOL      0.055833
    158 C53        -1.6240   -0.3110   -0.7630 c         1 MOL      0.758223
    159 O21        -0.9500    0.5340   -1.3920 o         1 MOL     -0.806014
    160 O22        -1.0330   -1.1040   -0.0300 o         1 MOL     -0.806014
    161 H72        -5.6990    0.7160   -1.4460 hn        1 MOL      0.141821
    162 H73        -5.3520   -1.7720   -0.2280 h1        1 MOL      0.021869
    163 H74        -3.5080   -0.8470    0.9650 hc        1 MOL      0.030233
    164 H75        -3.9400    0.7310    0.4010 hc        1 MOL      0.030233
    165 H76        -3.4560   -0.0340   -1.8990 hc        1 MOL     -0.076328
    166 H77        -3.0650   -1.6810   -1.2600 hc        1 MOL     -0.076328
    167 N15        -6.5110    0.6030    1.7520 n         1 MOL      0.036395
    168 C54        -7.1740    0.9390    3.0300 c3        1 MOL     -0.326455
    169 H78        -8.1340    0.4270    3.0870 h1        1 MOL      0.123615
    170 H79        -6.5430    0.6230    3.8610 h1        1 MOL      0.123615
    171 H80        -7.3350    2.0160    3.0840 h1        1 MOL      0.123615
    172 H81        -6.2010    1.3250    1.1220 hn        1 MOL      0.009638
    173 Ca1         1.3700   -0.5440   -1.1240 Ca        1 MOL      1.797370
    174 O23         2.1590   -0.3510   -3.7350 oh        1 MOL     -0.816223
    175 H82         2.2560   -0.0760   -4.6490 ho        1 MOL      0.389302
    176 H83         2.4420   -1.2690   -3.7340 ho        1 MOL      0.389302
    177 O24         1.1050    2.1660   -2.2330 oh        1 MOL     -0.816223
    178 H84         0.2190    2.1250   -1.8720 ho        1 MOL      0.389302
    179 H85         1.2710    3.0950   -2.3700 ho        1 MOL      0.389302
    180 O25        -0.1310   -2.1710   -2.6590 oh        1 MOL     -0.816223
    181 H86         0.4440   -2.6570   -3.2450 ho        1 MOL      0.389302
    182 H87        -1.0050   -2.5120   -2.8560 ho        1 MOL      0.389302
@<TRIPOS>BOND
     1    1    2 1   
     2    1    4 1   
     3    1    5 1   
     4    1    6 1   
     5    2    3 2   
     6    2    7 1   
     7    7    8 1   
     8    7   15 1   
     9    8    9 1   
    10    8   11 1   
    11    8   16 1   
    12    9   10 2   
    13    9   19 1   
    14   11   12 1   
    15   11   17 1   
    16   11   18 1   
    17   12   13 1   
    18   12   14 1   
    19   19   20 1   
    20   19   28 1   
    21   20   21 1   
    22   20   23 1   
    23   20   29 1   
    24   21   22 2   
    25   21   41 1   
    26   23   24 1   
    27   23   30 1   
    28   23   31 1   
    29   24   25 1   
    30   24   32 1   
    31   24   33 1   
    32   25   26 1   
    33   25   34 1   
    34   25   35 1   
    35   26   27 1   
    36   26   36 1   
    37   26   37 1   
    38   27   38 1   
    39   27   39 1   
    40   27   40 1   
    41   41   42 1   
    42   41   49 1   
    43   42   43 1   
    44   42   45 1   
    45   42   50 1   
    46   43   44 2   
    47   43   53 1   
    48   45   46 1   
    49   45   51 1   
    50   45   52 1   
    51   46   47 1   
    52   46   48 1   
    53   53   54 1   
    54   53   57 1   
    55   54   55 1   
    56   54   58 1   
    57   54   59 1   
    58   55   56 2   
    59   55   60 1   
    60   60   61 1   
    61   60   68 1   
    62   61   62 1   
    63   61   64 1   
    64   61   69 1   
    65   62   63 2   
    66   62   74 1   
    67   64   65 1   
    68   64   70 1   
    69   64   71 1   
    70   65   66 1   
    71   65   67 2   
    72   66   72 1   
    73   66   73 1   
    74   74   75 1   
    75   74   78 1   
    76   75   76 1   
    77   75   79 1   
    78   75   80 1   
    79   76   77 2   
    80   76   81 1   
    81   81   82 1   
    82   81   93 1   
    83   82   83 1   
    84   82   85 1   
    85   82   94 1   
    86   83   84 2   
    87   83  102 1   
    88   85   86 1   
    89   85   95 1   
    90   85   96 1   
    91   86   87 ar  
    92   86   88 ar  
    93   87   89 ar  
    94   87   97 1   
    95   88   90 ar  
    96   88   98 1   
    97   89   91 ar  
    98   89   99 1   
    99   90   91 ar  
   100   90  100 1   
   101   91   92 1   
   102   92  101 1   
   103  102  103 1   
   104  102  110 1   
   105  103  104 1   
   106  103  106 1   
   107  103  111 1   
   108  104  105 2   
   109  104  121 1   
   110  106  107 1   
   111  106  108 1   
   112  106  112 1   
   113  107  109 1   
   114  107  113 1   
   115  107  114 1   
   116  108  115 1   
   117  108  116 1   
   118  108  117 1   
   119  109  118 1   
   120  109  119 1   
   121  109  120 1   
   122  121  122 1   
   123  121  127 1   
   124  122  123 1   
   125  122  125 1   
   126  122  128 1   
   127  123  124 2   
   128  123  132 1   
   129  125  126 1   
   130  125  129 1   
   131  125  130 1   
   132  126  131 1   
   133  132  133 1   
   134  132  137 1   
   135  133  134 1   
   136  133  136 1   
   137  133  138 1   
   138  134  135 2   
   139  134  142 1   
   140  136  139 1   
   141  136  140 1   
   142  136  141 1   
   143  142  143 1   
   144  142  147 1   
   145  143  144 1   
   146  143  146 1   
   147  143  148 1   
   148  144  145 2   
   149  144  152 1   
   150  146  149 1   
   151  146  150 1   
   152  146  151 1   
   153  152  153 1   
   154  152  161 1   
   155  153  154 1   
   156  153  156 1   
   157  153  162 1   
   158  154  155 2   
   159  154  167 1   
   160  156  157 1   
   161  156  163 1   
   162  156  164 1   
   163  157  158 1   
   164  157  165 1   
   165  157  166 1   
   166  158  159 1   
   167  158  160 1   
   168  167  168 1   
   169  167  172 1   
   170  168  169 1   
   171  168  170 1   
   172  168  171 1   
   173  174  175 1   
   174  174  176 1   
   175  177  178 1   
   176  177  179 1   
   177  180  181 1   
   178  180  182 1   
@<TRIPOS>SUBSTRUCTURE
     1 MOL         1 TEMP              0 ****  ****    0 ROOT
