@<TRIPOS>MOLECULE
MOL
  179   176     1     0     0
SMALL
resp


@<TRIPOS>ATOM
      1 C1          1.8750    4.0470    4.0760 c3        1 MOL     -0.392908
      2 C2          1.0920    3.5300    2.9010 c         1 MOL      0.613054
      3 O1          1.5960    3.5210    1.7660 o         1 MOL     -0.600079
      4 H1          2.2720    5.0340    3.8410 hc        1 MOL      0.105378
      5 H2          1.2220    4.1170    4.9450 hc        1 MOL      0.105378
      6 H3          2.6980    3.3670    4.2920 hc        1 MOL      0.105378
      7 N1         -0.1720    3.1780    3.0780 n         1 MOL     -0.537908
      8 C3         -1.0420    2.6670    2.0830 c3        1 MOL      0.079526
      9 C4         -1.7170    3.8210    1.2270 c         1 MOL      0.552019
     10 O2         -2.8500    4.2330    1.4630 o         1 MOL     -0.492174
     11 C5         -2.1380    1.7210    2.7350 c3        1 MOL     -0.196604
     12 C6         -3.0830    1.1080    1.6720 c         1 MOL      0.721400
     13 O3         -4.1660    0.6550    2.1550 o         1 MOL     -0.661178
     14 O4         -2.7050    1.0010    0.4750 o         1 MOL     -0.661178
     15 H4         -0.7030    3.3350    3.9260 hn        1 MOL      0.337856
     16 H5         -0.4520    2.0690    1.3850 h1        1 MOL     -0.088700
     17 H6         -2.7790    2.4180    3.2800 hc        1 MOL      0.041432
     18 H7         -1.6840    0.8890    3.2670 hc        1 MOL      0.041432
     19 N2         -0.8850    4.4200    0.4060 n         1 MOL     -0.406475
     20 C7         -1.2180    5.6050   -0.4490 c3        1 MOL     -0.030362
     21 C8         -2.5440    5.5340   -1.2250 c         1 MOL      0.560404
     22 O5         -3.1620    6.5040   -1.4130 o         1 MOL     -0.575589
     23 C9         -0.0030    5.9150   -1.3640 c3        1 MOL     -0.583267
     24 C10         1.2550    6.4590   -0.7370 c3        1 MOL      0.319581
     25 C11         0.9610    7.7290    0.0860 c3        1 MOL     -0.099705
     26 C12         2.2930    8.3770    0.4370 c3        1 MOL     -0.212401
     27 N3          3.0320    7.6600    1.4930 n4        1 MOL     -0.316855
     28 H8          0.1030    4.2200    0.3980 hn        1 MOL      0.424990
     29 H9         -1.4760    6.3970    0.2620 h1        1 MOL      0.041905
     30 H10        -0.3880    6.5990   -2.1160 hc        1 MOL      0.195138
     31 H11         0.2770    4.9400   -1.7420 hc        1 MOL      0.195138
     32 H12         1.9040    6.7500   -1.5600 hc        1 MOL     -0.019751
     33 H13         1.6490    5.6620   -0.1140 hc        1 MOL     -0.019751
     34 H14         0.4240    7.4480    0.9850 hc        1 MOL      0.087131
     35 H15         0.4770    8.5250   -0.4890 hc        1 MOL      0.087131
     36 H16         2.0090    9.2940    0.9410 hx        1 MOL      0.151945
     37 H17         2.8980    8.6140   -0.4400 hx        1 MOL      0.151945
     38 H18         3.7670    8.1920    1.9420 hn        1 MOL      0.323858
     39 H19         2.4970    7.4140    2.3140 hn        1 MOL      0.323858
     40 H20         3.4990    6.8670    1.0720 hn        1 MOL      0.323858
     41 N4         -2.8690    4.3720   -1.6380 n         1 MOL     -0.168379
     42 C13        -4.0110    4.0250   -2.4120 c3        1 MOL     -0.015757
     43 C14        -5.1970    3.3070   -1.5780 c         1 MOL      0.336506
     44 O6         -6.2480    3.1250   -2.2080 o         1 MOL     -0.519632
     45 C15        -3.5880    3.1500   -3.6470 c3        1 MOL     -0.185243
     46 C16        -2.7830    1.9280   -3.1390 c         1 MOL      0.694777
     47 O7         -1.6210    2.1110   -2.7570 o         1 MOL     -0.718407
     48 O8         -3.3510    0.8150   -3.1420 o         1 MOL     -0.718407
     49 H21        -2.3240    3.5610   -1.3980 hn        1 MOL      0.117598
     50 H22        -4.4250    4.9190   -2.8860 h1        1 MOL      0.098809
     51 H23        -3.0120    3.8270   -4.2840 hc        1 MOL      0.056624
     52 H24        -4.4330    2.7790   -4.2160 hc        1 MOL      0.056624
     53 N5         -4.9390    2.9830   -0.3720 n         1 MOL      0.046211
     54 C17        -6.0760    2.6700    0.4860 c3        1 MOL     -0.246991
     55 C18        -6.8000    1.3220    0.3200 c         1 MOL      0.492049
     56 O9         -7.8990    1.1160    0.8170 o         1 MOL     -0.560623
     57 H25        -4.1750    3.3310    0.1940 hn        1 MOL      0.100363
     58 H26        -6.7410    3.5380    0.4370 h1        1 MOL      0.113290
     59 H27        -5.7030    2.5140    1.4950 h1        1 MOL      0.113290
     60 N6         -6.1920    0.3750   -0.3550 n         1 MOL     -0.178582
     61 C19        -6.6810   -1.0350   -0.5120 c3        1 MOL     -0.026222
     62 C20        -6.7090   -1.8530    0.8050 c         1 MOL      0.392760
     63 O10        -7.4830   -2.8180    0.8910 o         1 MOL     -0.554029
     64 C21        -5.9630   -1.7100   -1.7110 c3        1 MOL     -0.216767
     65 C22        -4.5570   -1.9990   -1.5670 c         1 MOL      0.602450
     66 N7         -4.0850   -2.8010   -2.5290 n         1 MOL     -0.688906
     67 O11        -3.8110   -1.4910   -0.7070 o         1 MOL     -0.509742
     68 H28        -5.3100    0.6360   -0.7620 hn        1 MOL      0.137470
     69 H29        -7.7340   -0.9960   -0.7950 h1        1 MOL      0.090877
     70 H30        -6.1500   -1.0980   -2.5950 hc        1 MOL      0.096825
     71 H31        -6.4640   -2.6590   -1.8540 hc        1 MOL      0.096825
     72 H32        -4.6740   -3.1400   -3.2760 hn        1 MOL      0.333576
     73 H33        -3.1470   -3.1690   -2.4790 hn        1 MOL      0.333576
     74 N8         -5.8350   -1.4500    1.6530 n         1 MOL     -0.014036
     75 C23        -5.6480   -2.0480    2.9600 c3        1 MOL     -0.106962
     76 C24        -4.3360   -2.8250    3.0620 c         1 MOL      0.464187
     77 O12        -4.1850   -3.6040    4.0220 o         1 MOL     -0.568558
     78 H34        -5.1940   -0.6940    1.4350 hn        1 MOL      0.141112
     79 H35        -6.5220   -2.6660    3.1980 h1        1 MOL      0.085482
     80 H36        -5.6980   -1.2390    3.6880 h1        1 MOL      0.085482
     81 N9         -3.4470   -2.7660    2.0740 n         1 MOL     -0.056962
     82 C25        -2.1340   -3.4700    2.1830 c3        1 MOL      0.020200
     83 C26        -0.9160   -2.7350    1.5800 c         1 MOL      0.404594
     84 O13        -1.1100   -1.8110    0.7450 o         1 MOL     -0.547467
     85 C27        -2.1870   -4.9280    1.7090 c3        1 MOL     -0.035873
     86 C28        -3.0420   -5.2830    0.5220 ca        1 MOL      0.074039
     87 C29        -4.4270   -5.3690    0.6640 ca        1 MOL     -0.198921
     88 C30        -2.5410   -5.6250   -0.7400 ca        1 MOL     -0.198921
     89 C31        -5.2270   -5.6430   -0.4320 ca        1 MOL     -0.235102
     90 C32        -3.3370   -6.0460   -1.8100 ca        1 MOL     -0.235102
     91 C33        -4.7010   -6.0220   -1.6900 ca        1 MOL      0.341805
     92 O14        -5.4570   -6.3160   -2.7400 oh        1 MOL     -0.540127
     93 H37        -3.6150   -2.1620    1.2900 hn        1 MOL      0.082462
     94 H38        -1.8520   -3.6460    3.2250 h1        1 MOL      0.033181
     95 H39        -2.6540   -5.4580    2.5330 hc        1 MOL      0.041685
     96 H40        -1.2090   -5.3930    1.5820 hc        1 MOL      0.041685
     97 H41        -4.9560   -5.0960    1.5620 ha        1 MOL      0.134330
     98 H42        -1.4900   -5.4310   -0.8490 ha        1 MOL      0.134330
     99 H43        -6.2950   -5.6230   -0.2950 ha        1 MOL      0.128683
    100 H44        -2.8840   -6.3590   -2.7490 ha        1 MOL      0.128683
    101 H45        -6.3300   -6.5140   -2.4060 ho        1 MOL      0.413143
    102 N10         0.3330   -3.0280    1.8880 n         1 MOL     -0.301740
    103 C34         1.4810   -2.2940    1.4780 c3        1 MOL      0.004488
    104 C35         2.5610   -3.3060    1.0310 c         1 MOL      0.444571
    105 O15         2.6750   -4.3920    1.6440 o         1 MOL     -0.528731
    106 C36         2.1600   -1.3640    2.4780 c3        1 MOL     -0.004393
    107 C37         2.7870   -2.0450    3.7810 c3        1 MOL     -0.395026
    108 C38         1.1170   -0.2660    2.8070 c3        1 MOL     -0.443515
    109 C39         3.4190   -1.0560    4.7230 c3        1 MOL      0.080266
    110 H46         0.4480   -3.6820    2.6550 hn        1 MOL      0.285498
    111 H47         1.2430   -1.6940    0.6070 h1        1 MOL      0.074729
    112 H48         3.0450   -0.8680    2.0760 hc        1 MOL      0.030319
    113 H49         3.5600   -2.7080    3.3970 hc        1 MOL      0.138709
    114 H50         2.1050   -2.7350    4.2750 hc        1 MOL      0.138709
    115 H51         0.2910   -0.7340    3.3370 hc        1 MOL      0.176253
    116 H52         1.6050    0.4170    3.5100 hc        1 MOL      0.176253
    117 H53         0.7900    0.2440    1.9070 hc        1 MOL      0.176253
    118 H54         3.9450   -1.5560    5.5330 hc        1 MOL      0.000538
    119 H55         4.1890   -0.4810    4.2150 hc        1 MOL      0.000538
    120 H56         2.7540   -0.3500    5.2140 hc        1 MOL      0.000538
    121 N11         3.3910   -2.9420    0.0320 n         1 MOL     -0.343390
    122 C40         4.5660   -3.6740   -0.2980 c3        1 MOL      0.196106
    123 C41         5.8690   -3.1380    0.2700 c         1 MOL      0.475705
    124 O16         5.9720   -2.1350    0.9360 o         1 MOL     -0.421240
    125 C42         4.6170   -3.7680   -1.8020 c3        1 MOL     -0.227650
    126 O17         5.0220   -2.4580   -2.3010 oh        1 MOL     -0.410613
    127 H57         3.3570   -2.0010   -0.3420 hn        1 MOL      0.210934
    128 H58         4.4320   -4.6540    0.1600 h1        1 MOL      0.048817
    129 H59         3.6630   -4.0550   -2.2300 h1        1 MOL      0.120258
    130 H60         5.3120   -4.5770   -2.0470 h1        1 MOL      0.120258
    131 H61         5.2730   -2.5520   -3.2190 ho        1 MOL      0.373725
    132 N12         6.9630   -3.8650   -0.0120 n         1 MOL     -0.507156
    133 C43         8.3220   -3.1960    0.1860 c3        1 MOL      0.135083
    134 C44         8.5440   -1.8610   -0.6490 c         1 MOL      0.517857
    135 O18         9.0440   -0.9040   -0.0410 o         1 MOL     -0.549581
    136 C45         9.3760   -4.2280   -0.3660 c3        1 MOL     -0.229398
    137 H62         6.9780   -4.6820   -0.6020 hn        1 MOL      0.295864
    138 H63         8.5910   -2.9370    1.2140 h1        1 MOL      0.085250
    139 H64         9.2600   -5.1900    0.1330 hc        1 MOL      0.067224
    140 H65         9.2120   -4.3820   -1.4320 hc        1 MOL      0.067224
    141 H66        10.4100   -3.9220   -0.4100 hc        1 MOL      0.067224
    142 N13         7.9510   -1.6920   -1.7920 n         1 MOL     -0.422234
    143 C46         7.8540   -0.3930   -2.5820 c3        1 MOL      0.148990
    144 C47         7.0700    0.6730   -1.8240 c         1 MOL      0.349351
    145 O19         7.5730    1.7350   -1.5660 o         1 MOL     -0.489935
    146 C48         7.3190   -0.6260   -4.0070 c3        1 MOL     -0.268469
    147 H67         7.2620   -2.3800   -2.0480 hn        1 MOL      0.186365
    148 H68         8.8890   -0.0440   -2.6690 h1        1 MOL      0.088590
    149 H69         7.6180    0.2970   -4.5080 hc        1 MOL      0.075041
    150 H70         7.7400   -1.4950   -4.5190 hc        1 MOL      0.075041
    151 H71         6.2310   -0.6830   -4.0340 hc        1 MOL      0.075041
    152 N14         5.8580    0.3600   -1.4370 n         1 MOL     -0.058685
    153 C49         5.1130    1.4690   -0.8090 c3        1 MOL     -0.072886
    154 C50         5.7530    1.9100    0.5400 c         1 MOL      0.382401
    155 O20         5.7140    3.1130    0.7840 o         1 MOL     -0.571577
    156 C51         3.6780    1.0390   -0.4920 c3        1 MOL     -0.014487
    157 C52         2.8170    0.9670   -1.6790 c3        1 MOL      0.001857
    158 C53         1.4260    0.4160   -1.3640 c         1 MOL      0.683563
    159 O21         0.6980    1.0370   -0.5960 o         1 MOL     -0.714243
    160 O22         1.0560   -0.6930   -1.8460 o         1 MOL     -0.714243
    161 H72         5.3740   -0.4560   -1.7780 hn        1 MOL      0.124849
    162 H73         5.1050    2.2560   -1.5630 h1        1 MOL      0.081782
    163 H74         3.3000    1.8200    0.1670 hc        1 MOL      0.070065
    164 H75         3.6410    0.0900    0.0300 hc        1 MOL      0.070065
    165 H76         3.2420    0.3290   -2.4560 hc        1 MOL     -0.040085
    166 H77         2.7120    1.9790   -2.0560 hc        1 MOL     -0.040085
    167 N15         6.3240    0.9970    1.2740 n         1 MOL      0.019811
    168 C54         7.0050    1.2650    2.5340 c3        1 MOL     -0.248521
    169 H78         7.4070    2.2780    2.5200 h1        1 MOL      0.098462
    170 H79         6.2990    1.1670    3.3580 h1        1 MOL      0.098462
    171 H80         7.8200    0.5530    2.6650 h1        1 MOL      0.098462
    172 H81         6.1980    0.0380    1.0130 hn        1 MOL      0.112693
    173 Ca1        -1.4960   -0.3130   -1.3810 Ca        1 MOL      1.689544
    174 O23        -1.2280   -3.0140   -1.9910 oh        1 MOL     -0.796611
    175 H82        -0.4920   -3.3500   -1.4940 ho        1 MOL      0.389191
    176 H83        -1.3580   -3.6400   -2.7030 ho        1 MOL      0.389191
    177 O24        -0.9640   -0.7880   -3.9460 oh        1 MOL     -0.796611
    178 H84        -1.7330   -0.6490   -4.4930 ho        1 MOL      0.389191
    179 H85        -0.2140   -0.6550   -4.5270 ho        1 MOL      0.389191
@<TRIPOS>BOND
     1    1    2 1   
     2    1    4 1   
     3    1    5 1   
     4    1    6 1   
     5    2    3 2   
     6    2    7 1   
     7    7    8 1   
     8    7   15 1   
     9    8    9 1   
    10    8   11 1   
    11    8   16 1   
    12    9   10 2   
    13    9   19 1   
    14   11   12 1   
    15   11   17 1   
    16   11   18 1   
    17   12   13 1   
    18   12   14 1   
    19   19   20 1   
    20   19   28 1   
    21   20   21 1   
    22   20   23 1   
    23   20   29 1   
    24   21   22 2   
    25   21   41 1   
    26   23   24 1   
    27   23   30 1   
    28   23   31 1   
    29   24   25 1   
    30   24   32 1   
    31   24   33 1   
    32   25   26 1   
    33   25   34 1   
    34   25   35 1   
    35   26   27 1   
    36   26   36 1   
    37   26   37 1   
    38   27   38 1   
    39   27   39 1   
    40   27   40 1   
    41   41   42 1   
    42   41   49 1   
    43   42   43 1   
    44   42   45 1   
    45   42   50 1   
    46   43   44 2   
    47   43   53 1   
    48   45   46 1   
    49   45   51 1   
    50   45   52 1   
    51   46   47 1   
    52   46   48 1   
    53   53   54 1   
    54   53   57 1   
    55   54   55 1   
    56   54   58 1   
    57   54   59 1   
    58   55   56 2   
    59   55   60 1   
    60   60   61 1   
    61   60   68 1   
    62   61   62 1   
    63   61   64 1   
    64   61   69 1   
    65   62   63 2   
    66   62   74 1   
    67   64   65 1   
    68   64   70 1   
    69   64   71 1   
    70   65   66 1   
    71   65   67 2   
    72   66   72 1   
    73   66   73 1   
    74   74   75 1   
    75   74   78 1   
    76   75   76 1   
    77   75   79 1   
    78   75   80 1   
    79   76   77 2   
    80   76   81 1   
    81   81   82 1   
    82   81   93 1   
    83   82   83 1   
    84   82   85 1   
    85   82   94 1   
    86   83   84 2   
    87   83  102 1   
    88   85   86 1   
    89   85   95 1   
    90   85   96 1   
    91   86   87 ar  
    92   86   88 ar  
    93   87   89 ar  
    94   87   97 1   
    95   88   90 ar  
    96   88   98 1   
    97   89   91 ar  
    98   89   99 1   
    99   90   91 ar  
   100   90  100 1   
   101   91   92 1   
   102   92  101 1   
   103  102  103 1   
   104  102  110 1   
   105  103  104 1   
   106  103  106 1   
   107  103  111 1   
   108  104  105 2   
   109  104  121 1   
   110  106  107 1   
   111  106  108 1   
   112  106  112 1   
   113  107  109 1   
   114  107  113 1   
   115  107  114 1   
   116  108  115 1   
   117  108  116 1   
   118  108  117 1   
   119  109  118 1   
   120  109  119 1   
   121  109  120 1   
   122  121  122 1   
   123  121  127 1   
   124  122  123 1   
   125  122  125 1   
   126  122  128 1   
   127  123  124 2   
   128  123  132 1   
   129  125  126 1   
   130  125  129 1   
   131  125  130 1   
   132  126  131 1   
   133  132  133 1   
   134  132  137 1   
   135  133  134 1   
   136  133  136 1   
   137  133  138 1   
   138  134  135 2   
   139  134  142 1   
   140  136  139 1   
   141  136  140 1   
   142  136  141 1   
   143  142  143 1   
   144  142  147 1   
   145  143  144 1   
   146  143  146 1   
   147  143  148 1   
   148  144  145 2   
   149  144  152 1   
   150  146  149 1   
   151  146  150 1   
   152  146  151 1   
   153  152  153 1   
   154  152  161 1   
   155  153  154 1   
   156  153  156 1   
   157  153  162 1   
   158  154  155 2   
   159  154  167 1   
   160  156  157 1   
   161  156  163 1   
   162  156  164 1   
   163  157  158 1   
   164  157  165 1   
   165  157  166 1   
   166  158  159 1   
   167  158  160 1   
   168  167  168 1   
   169  167  172 1   
   170  168  169 1   
   171  168  170 1   
   172  168  171 1   
   173  174  175 1   
   174  174  176 1   
   175  177  178 1   
   176  177  179 1   
@<TRIPOS>SUBSTRUCTURE
     1 MOL         1 TEMP              0 ****  ****    0 ROOT
