@<TRIPOS>MOLECULE
MOL
  189   185     1     0     0
SMALL
resp


@<TRIPOS>ATOM
      1 C1         -0.1290    3.1000   -5.4120 c3        1 MOL     -0.406485
      2 C2          0.4400    2.8130   -3.9850 c         1 MOL      0.802683
      3 O1         -0.2150    3.0650   -2.9790 o         1 MOL     -0.659162
      4 H1         -0.7650    3.9840   -5.3780 hc        1 MOL      0.098584
      5 H2          0.6950    3.2720   -6.1040 hc        1 MOL      0.098584
      6 H3         -0.7140    2.2440   -5.7490 hc        1 MOL      0.098584
      7 N1          1.7210    2.3530   -3.8430 n         1 MOL     -0.735816
      8 C3          2.3390    1.9780   -2.5540 c3        1 MOL      0.200914
      9 C4          2.9130    3.1920   -1.8140 c         1 MOL      0.499226
     10 O2          3.8620    3.7940   -2.2270 o         1 MOL     -0.570533
     11 C5          3.4920    1.0110   -2.8310 c3        1 MOL     -0.227788
     12 C6          4.1010    0.6280   -1.4480 c         1 MOL      0.669927
     13 O3          5.3510    0.4240   -1.4150 o         1 MOL     -0.663535
     14 O4          3.4040    0.6290   -0.4400 o         1 MOL     -0.663535
     15 H4          2.1890    2.1390   -4.7100 hn        1 MOL      0.350870
     16 H5          1.5820    1.4220   -2.0110 h1        1 MOL      0.053659
     17 H6          4.1950    1.4330   -3.5410 hc        1 MOL      0.059498
     18 H7          3.0880    0.1170   -3.3010 hc        1 MOL      0.059498
     19 N2          2.2850    3.6090   -0.6910 n         1 MOL     -0.034050
     20 C7          2.6740    4.8480    0.0330 c3        1 MOL      0.042636
     21 C8          3.8830    4.7020    0.9250 c         1 MOL      0.681272
     22 O5          4.5340    5.7010    1.1750 o         1 MOL     -0.611013
     23 C9          1.4120    5.5950    0.5970 c3        1 MOL     -0.007671
     24 C10         0.2470    5.8350   -0.4130 c3        1 MOL     -0.050727
     25 C11         0.6860    6.4400   -1.7660 c3        1 MOL      0.003196
     26 C12        -0.4970    7.0680   -2.5060 c3        1 MOL      0.053811
     27 N3         -0.0600    7.8900   -3.6230 n4        1 MOL     -0.440509
     28 H8          1.4690    3.0930   -0.3950 hn        1 MOL      0.176791
     29 H9          2.9460    5.5560   -0.7570 h1        1 MOL     -0.038076
     30 H10         1.8200    6.4250    1.1670 hc        1 MOL     -0.002670
     31 H11         1.0510    4.8210    1.2730 hc        1 MOL     -0.002670
     32 H12        -0.4770    6.4860    0.0900 hc        1 MOL      0.032353
     33 H13        -0.2720    4.8960   -0.5880 hc        1 MOL      0.032353
     34 H14         1.1710    5.7390   -2.4530 hc        1 MOL      0.029927
     35 H15         1.4290    7.2100   -1.5540 hc        1 MOL      0.029927
     36 H16        -1.0580    7.5840   -1.7310 hx        1 MOL      0.078886
     37 H17        -1.2310    6.3130   -2.8000 hx        1 MOL      0.078886
     38 H18         0.3910    7.2970   -4.3030 hn        1 MOL      0.346637
     39 H19        -0.8250    8.3860   -4.0520 hn        1 MOL      0.346637
     40 H20         0.5810    8.6150   -3.3180 hn        1 MOL      0.346637
     41 N4          4.2320    3.5480    1.3600 n         1 MOL     -0.524913
     42 C13         4.9130    3.2820    2.6510 c3        1 MOL      0.026739
     43 C14         6.0120    2.2220    2.4120 c         1 MOL      0.511554
     44 O6          6.6720    1.7850    3.3130 o         1 MOL     -0.547913
     45 C15         3.8590    3.0260    3.7410 c3        1 MOL     -0.199313
     46 C16         2.7100    2.1400    3.3310 c         1 MOL      0.919400
     47 O7          2.8200    1.2890    2.4320 o         1 MOL     -0.761504
     48 O8          1.7680    2.1570    4.1440 o         1 MOL     -0.761504
     49 H21         3.8030    2.7490    0.9200 hn        1 MOL      0.096526
     50 H22         5.4830    4.1550    2.9660 h1        1 MOL      0.115466
     51 H23         3.5170    4.0410    3.9730 hc        1 MOL      0.053000
     52 H24         4.2990    2.6310    4.6580 hc        1 MOL      0.053000
     53 N5          6.3600    1.9180    1.1620 n         1 MOL     -0.360099
     54 C17         7.5780    1.2100    0.8610 c3        1 MOL     -0.185012
     55 C18         7.7620   -0.1790    1.3830 c         1 MOL      0.546900
     56 O9          8.8250   -0.6740    1.4620 o         1 MOL     -0.589789
     57 H25         5.7080    2.2270    0.4610 hn        1 MOL      0.324174
     58 H26         8.4210    1.8190    1.1830 h1        1 MOL      0.107944
     59 H27         7.6300    1.2560   -0.2270 h1        1 MOL      0.107944
     60 N6          6.6560   -0.8360    1.6450 n         1 MOL     -0.209801
     61 C19         6.6510   -2.2600    2.1610 c3        1 MOL     -0.060253
     62 C20         6.6680   -3.2240    1.0280 c         1 MOL      0.440678
     63 O10         6.8150   -4.4020    1.2890 o         1 MOL     -0.546754
     64 C21         5.3200   -2.5120    2.9420 c3        1 MOL     -0.219129
     65 C22         4.0220   -1.9700    2.2930 c         1 MOL      0.624164
     66 O11         3.1400   -1.6920    3.1460 o         1 MOL     -0.655919
     67 O12         3.8980   -2.0080    1.0640 o         1 MOL     -0.655919
     68 H28         5.7740   -0.3760    1.4910 hn        1 MOL      0.251027
     69 H29         7.4920   -2.5010    2.8090 h1        1 MOL      0.128131
     70 H30         5.4800   -1.9570    3.8740 hc        1 MOL      0.073340
     71 H31         5.2700   -3.5610    3.2340 hc        1 MOL      0.073340
     72 N7          6.4150   -2.7660   -0.2290 n         1 MOL     -0.173383
     73 C23         6.5060   -3.5860   -1.4030 c3        1 MOL     -0.186652
     74 C24         5.1970   -4.2650   -1.7530 c         1 MOL      0.540395
     75 O13         5.2330   -5.2440   -2.4970 o         1 MOL     -0.567278
     76 H32         6.2650   -1.7700   -0.3160 hn        1 MOL      0.191241
     77 H33         7.3190   -4.3090   -1.3030 h1        1 MOL      0.102759
     78 H34         6.7930   -2.9310   -2.2290 h1        1 MOL      0.102759
     79 N8          4.0990   -3.7540   -1.2410 n         1 MOL     -0.269249
     80 C25         2.7790   -4.3760   -1.3560 c3        1 MOL     -0.128612
     81 C26         1.6790   -3.3240   -1.3710 c         1 MOL      0.684869
     82 O14         1.8400   -2.1610   -0.9610 o         1 MOL     -0.643152
     83 C27         2.4550   -5.3430   -0.1860 c3        1 MOL      0.409097
     84 C28         3.1600   -6.6380   -0.4200 c3        1 MOL     -0.434518
     85 O15         2.8210   -4.8100    1.1000 oh        1 MOL     -0.597747
     86 H35         4.1700   -3.0120   -0.5630 hn        1 MOL      0.223886
     87 H36         2.7130   -4.9680   -2.2790 h1        1 MOL      0.098888
     88 H37         1.3900   -5.5330   -0.2160 h1        1 MOL      0.001266
     89 H38         3.5990   -4.2880    0.8990 ho        1 MOL      0.400381
     90 H39         4.2070   -6.3570   -0.5120 hc        1 MOL      0.113488
     91 H40         2.9940   -7.3710    0.3640 hc        1 MOL      0.113488
     92 H41         2.9040   -7.1030   -1.3750 hc        1 MOL      0.113488
     93 N9          0.5460   -3.5560   -2.1040 n         1 MOL     -0.682220
     94 C29        -0.6030   -2.7020   -2.1850 c3        1 MOL      0.060739
     95 C30        -1.7830   -3.3730   -1.4190 c         1 MOL      0.476624
     96 O16        -2.0990   -4.5100   -1.7010 o         1 MOL     -0.565587
     97 C31        -1.0510   -2.3090   -3.6430 c3        1 MOL      0.347476
     98 C32         0.1190   -1.6290   -4.3570 c3        1 MOL      0.040987
     99 C33        -2.4560   -1.6910   -3.8610 c3        1 MOL     -0.116950
    100 C34        -0.0780   -1.5060   -5.8270 c3        1 MOL     -0.339921
    101 H42         0.4160   -4.5080   -2.3960 hn        1 MOL      0.308965
    102 H43        -0.4580   -1.7750   -1.6290 h1        1 MOL      0.065236
    103 H44        -1.2270   -3.2640   -4.1510 hc        1 MOL     -0.075335
    104 H45         0.9590   -2.3200   -4.2830 hc        1 MOL      0.021988
    105 H46         0.3530   -0.7180   -3.8100 hc        1 MOL      0.021988
    106 H47        -3.2330   -2.3070   -3.4130 hc        1 MOL     -0.004434
    107 H48        -2.4820   -0.7080   -3.3860 hc        1 MOL     -0.004434
    108 H49        -2.6570   -1.6350   -4.9290 hc        1 MOL     -0.004434
    109 H50        -1.0100   -0.9650   -5.9760 hc        1 MOL      0.081132
    110 H51         0.8010   -1.0850   -6.3230 hc        1 MOL      0.081132
    111 H52        -0.1450   -2.4960   -6.2870 hc        1 MOL      0.081132
    112 N10        -2.5550   -2.6610   -0.5520 n         1 MOL     -0.084531
    113 C35        -3.7300   -3.1440    0.2060 c3        1 MOL      0.052600
    114 C36        -5.0650   -2.7650   -0.5200 c         1 MOL      0.343829
    115 O17        -5.1290   -1.9210   -1.3990 o         1 MOL     -0.355491
    116 C37        -3.7090   -2.5520    1.5600 c3        1 MOL      0.035028
    117 C38        -2.4150   -2.8400    2.4060 c3        1 MOL     -0.099787
    118 O18        -3.9180   -1.1390    1.6560 oh        1 MOL     -0.418947
    119 H53        -2.2440   -1.7490   -0.2590 hn        1 MOL      0.156314
    120 H54        -3.8080   -4.2270    0.2830 h1        1 MOL      0.061570
    121 H55        -4.4990   -3.0600    2.1090 h1        1 MOL      0.025198
    122 H56        -3.6960   -0.8440    2.5450 ho        1 MOL      0.342339
    123 H57        -1.8020   -3.5600    1.8560 hc        1 MOL      0.030975
    124 H58        -1.7700   -1.9580    2.4460 hc        1 MOL      0.030975
    125 H59        -2.6010   -3.1840    3.4290 hc        1 MOL      0.030975
    126 N11        -6.2050   -3.2100   -0.0030 n         1 MOL     -0.329018
    127 C39        -7.5280   -2.6180   -0.3450 c3        1 MOL     -0.026517
    128 C40        -7.5840   -1.1310   -0.1740 c         1 MOL      0.228032
    129 O19        -8.0600   -0.4290   -1.0820 o         1 MOL     -0.448377
    130 C41        -8.7120   -3.1010    0.4860 c3        1 MOL      0.215957
    131 C42        -9.2320   -4.4780    0.0450 c3        1 MOL     -0.424468
    132 O20        -8.3980   -3.1950    1.8230 oh        1 MOL     -0.634139
    133 H60        -6.2130   -3.8700    0.7610 hn        1 MOL      0.265728
    134 H61        -7.7350   -2.9160   -1.3710 h1        1 MOL      0.135904
    135 H62        -9.4910   -2.3490    0.3280 h1        1 MOL      0.084011
    136 H63        -9.0020   -3.8560    2.1680 ho        1 MOL      0.423399
    137 H64        -9.4970   -4.4220   -1.0050 hc        1 MOL      0.123701
    138 H65        -8.4780   -5.2670    0.0550 hc        1 MOL      0.123701
    139 H66       -10.1260   -4.6570    0.6340 hc        1 MOL      0.123701
    140 N12        -7.0390   -0.6750    0.9640 n         1 MOL     -0.071565
    141 C43        -7.0740    0.7760    1.3570 c3        1 MOL     -0.025127
    142 C44        -6.3390    1.6780    0.3310 c         1 MOL      0.335358
    143 O21        -6.8710    2.7300   -0.0980 o         1 MOL     -0.490515
    144 C45        -6.5540    0.9470    2.8150 c3        1 MOL     -0.194396
    145 C46        -7.0380    2.3000    3.3900 c3        1 MOL     -0.033759
    146 C47        -6.5150    2.6530    4.7950 c3        1 MOL      0.023429
    147 C48        -7.2250    1.7070    5.8120 c3        1 MOL      0.019657
    148 N13        -7.2260    2.3090    7.1370 n4        1 MOL     -0.453847
    149 H67        -6.9570   -1.3160    1.7450 hn        1 MOL      0.205131
    150 H68        -8.0950    1.1520    1.2610 h1        1 MOL      0.092228
    151 H69        -5.4640    1.0570    2.8400 hc        1 MOL      0.066973
    152 H70        -6.8360    0.1960    3.5480 hc        1 MOL      0.066973
    153 H71        -8.1290    2.2780    3.3800 hc        1 MOL      0.037457
    154 H72        -6.8560    3.0590    2.6390 hc        1 MOL      0.037457
    155 H73        -6.7270    3.6950    5.0080 hc        1 MOL      0.040706
    156 H74        -5.4290    2.5960    4.8650 hc        1 MOL      0.040706
    157 H75        -6.7230    0.7390    5.9050 hx        1 MOL      0.085404
    158 H76        -8.2360    1.6210    5.4070 hx        1 MOL      0.085404
    159 H77        -8.0290    1.8920    7.5880 hn        1 MOL      0.339791
    160 H78        -6.3320    2.0900    7.5700 hn        1 MOL      0.339791
    161 H79        -7.3620    3.3150    7.1010 hn        1 MOL      0.339791
    162 N14        -5.1100    1.2510   -0.0130 n         1 MOL      0.105088
    163 C49        -4.3120    1.9070   -1.0580 c3        1 MOL     -0.389475
    164 C50        -4.8890    1.9890   -2.4600 c         1 MOL      0.566856
    165 O22        -4.7750    3.0040   -3.1160 o         1 MOL     -0.558127
    166 C51        -2.8760    1.3720   -0.9760 c3        1 MOL      0.357974
    167 C52        -2.1560    1.6600    0.3220 c3        1 MOL     -0.261128
    168 C53        -0.8410    0.8720    0.2640 c         1 MOL      0.760245
    169 O23        -0.8120   -0.3550    0.2160 o         1 MOL     -0.759123
    170 O24         0.2460    1.4550    0.4400 o         1 MOL     -0.759123
    171 H80        -4.8750    0.3600    0.4020 hn        1 MOL     -0.091006
    172 H81        -4.2600    2.9810   -0.8620 h1        1 MOL      0.117048
    173 H82        -2.3120    1.8670   -1.7620 hc        1 MOL     -0.043651
    174 H83        -2.9690    0.3210   -1.2720 hc        1 MOL     -0.043651
    175 H84        -2.8240    1.3690    1.1360 hc        1 MOL      0.060860
    176 H85        -1.9970    2.7270    0.4280 hc        1 MOL      0.060860
    177 N15        -5.5750    0.9150   -2.8700 n         1 MOL     -0.093007
    178 C54        -6.2210    0.8380   -4.1980 c3        1 MOL     -0.334450
    179 H86        -6.8010    1.7440   -4.3720 h1        1 MOL      0.121666
    180 H87        -5.4570    0.7420   -4.9700 h1        1 MOL      0.121666
    181 H88        -6.8830   -0.0280   -4.2310 h1        1 MOL      0.121666
    182 H89        -5.7030    0.0940   -2.3050 hn        1 MOL      0.158118
    183 Ca1         1.7150   -0.5750    1.0510 Ca        1 MOL      1.734021
    184 O25         0.4080   -0.2390    3.4050 oh        1 MOL     -0.816945
    185 H90         0.1540   -0.6310    4.2380 ho        1 MOL      0.389528
    186 H91         0.5680    0.6830    3.6170 ho        1 MOL      0.389528
    187 O26         0.8790   -3.0330    1.7290 oh        1 MOL     -0.816945
    188 H92         0.4600   -3.2330    2.5740 ho        1 MOL      0.389528
    189 H93         1.4250   -3.8020    1.5480 ho        1 MOL      0.389528
@<TRIPOS>BOND
     1    1    2 1   
     2    1    4 1   
     3    1    5 1   
     4    1    6 1   
     5    2    3 2   
     6    2    7 1   
     7    7    8 1   
     8    7   15 1   
     9    8    9 1   
    10    8   11 1   
    11    8   16 1   
    12    9   10 2   
    13    9   19 1   
    14   11   12 1   
    15   11   17 1   
    16   11   18 1   
    17   12   13 1   
    18   12   14 1   
    19   19   20 1   
    20   19   28 1   
    21   20   21 1   
    22   20   23 1   
    23   20   29 1   
    24   21   22 2   
    25   21   41 1   
    26   23   24 1   
    27   23   30 1   
    28   23   31 1   
    29   24   25 1   
    30   24   32 1   
    31   24   33 1   
    32   25   26 1   
    33   25   34 1   
    34   25   35 1   
    35   26   27 1   
    36   26   36 1   
    37   26   37 1   
    38   27   38 1   
    39   27   39 1   
    40   27   40 1   
    41   41   42 1   
    42   41   49 1   
    43   42   43 1   
    44   42   45 1   
    45   42   50 1   
    46   43   44 2   
    47   43   53 1   
    48   45   46 1   
    49   45   51 1   
    50   45   52 1   
    51   46   47 1   
    52   46   48 1   
    53   53   54 1   
    54   53   57 1   
    55   54   55 1   
    56   54   58 1   
    57   54   59 1   
    58   55   56 2   
    59   55   60 1   
    60   60   61 1   
    61   60   68 1   
    62   61   62 1   
    63   61   64 1   
    64   61   69 1   
    65   62   63 2   
    66   62   72 1   
    67   64   65 1   
    68   64   70 1   
    69   64   71 1   
    70   65   66 1   
    71   65   67 1   
    72   72   73 1   
    73   72   76 1   
    74   73   74 1   
    75   73   77 1   
    76   73   78 1   
    77   74   75 2   
    78   74   79 1   
    79   79   80 1   
    80   79   86 1   
    81   80   81 1   
    82   80   83 1   
    83   80   87 1   
    84   81   82 2   
    85   81   93 1   
    86   83   84 1   
    87   83   85 1   
    88   83   88 1   
    89   84   90 1   
    90   84   91 1   
    91   84   92 1   
    92   85   89 1   
    93   93   94 1   
    94   93  101 1   
    95   94   95 1   
    96   94   97 1   
    97   94  102 1   
    98   95   96 2   
    99   95  112 1   
   100   97   98 1   
   101   97   99 1   
   102   97  103 1   
   103   98  100 1   
   104   98  104 1   
   105   98  105 1   
   106   99  106 1   
   107   99  107 1   
   108   99  108 1   
   109  100  109 1   
   110  100  110 1   
   111  100  111 1   
   112  112  113 1   
   113  112  119 1   
   114  113  114 1   
   115  113  116 1   
   116  113  120 1   
   117  114  115 2   
   118  114  126 1   
   119  116  117 1   
   120  116  118 1   
   121  116  121 1   
   122  117  123 1   
   123  117  124 1   
   124  117  125 1   
   125  118  122 1   
   126  126  127 1   
   127  126  133 1   
   128  127  128 1   
   129  127  130 1   
   130  127  134 1   
   131  128  129 2   
   132  128  140 1   
   133  130  131 1   
   134  130  132 1   
   135  130  135 1   
   136  131  137 1   
   137  131  138 1   
   138  131  139 1   
   139  132  136 1   
   140  140  141 1   
   141  140  149 1   
   142  141  142 1   
   143  141  144 1   
   144  141  150 1   
   145  142  143 2   
   146  142  162 1   
   147  144  145 1   
   148  144  151 1   
   149  144  152 1   
   150  145  146 1   
   151  145  153 1   
   152  145  154 1   
   153  146  147 1   
   154  146  155 1   
   155  146  156 1   
   156  147  148 1   
   157  147  157 1   
   158  147  158 1   
   159  148  159 1   
   160  148  160 1   
   161  148  161 1   
   162  162  163 1   
   163  162  171 1   
   164  163  164 1   
   165  163  166 1   
   166  163  172 1   
   167  164  165 2   
   168  164  177 1   
   169  166  167 1   
   170  166  173 1   
   171  166  174 1   
   172  167  168 1   
   173  167  175 1   
   174  167  176 1   
   175  168  169 1   
   176  168  170 1   
   177  177  178 1   
   178  177  182 1   
   179  178  179 1   
   180  178  180 1   
   181  178  181 1   
   182  184  185 1   
   183  184  186 1   
   184  187  188 1   
   185  187  189 1   
@<TRIPOS>SUBSTRUCTURE
     1 MOL         1 TEMP              0 ****  ****    0 ROOT
