@<TRIPOS>MOLECULE
MOL
  179   176     1     0     0
SMALL
resp


@<TRIPOS>ATOM
      1 C1          1.9640    3.8040    5.3300 c3        1 MOL     -0.308083
      2 C2          1.5650    3.0270    4.0600 c         1 MOL      0.589683
      3 O1          2.4400    2.7910    3.2370 o         1 MOL     -0.513806
      4 H1          2.9780    4.1880    5.2170 hc        1 MOL      0.078220
      5 H2          1.2760    4.6360    5.4790 hc        1 MOL      0.078220
      6 H3          1.9220    3.1390    6.1920 hc        1 MOL      0.078220
      7 N1          0.2380    2.7620    3.8820 n         1 MOL     -0.509209
      8 C3         -0.3850    2.5120    2.5910 c3        1 MOL      0.013418
      9 C4         -0.2820    3.7440    1.6540 c         1 MOL      0.430899
     10 O2         -0.8300    4.7830    1.9750 o         1 MOL     -0.572506
     11 C5         -1.8350    1.9760    2.6990 c3        1 MOL     -0.032416
     12 C6         -2.5530    1.5580    1.3900 c         1 MOL      0.605357
     13 O3         -3.6230    0.8640    1.4690 o         1 MOL     -0.618794
     14 O4         -2.0940    1.9630    0.2780 o         1 MOL     -0.618794
     15 H4         -0.2980    3.0510    4.6770 hn        1 MOL      0.324142
     16 H5          0.2290    1.7160    2.1670 h1        1 MOL      0.010912
     17 H6         -2.4370    2.7680    3.1510 hc        1 MOL      0.025433
     18 H7         -1.9310    1.1960    3.4510 hc        1 MOL      0.025433
     19 N2          0.4230    3.6520    0.5030 n         1 MOL     -0.067722
     20 C7          0.7720    4.8370   -0.3290 c3        1 MOL     -0.047878
     21 C8         -0.2500    5.2820   -1.4190 c         1 MOL      0.441585
     22 O5          0.1620    6.1330   -2.2240 o         1 MOL     -0.533923
     23 C9          2.1590    4.6470   -0.9570 c3        1 MOL      0.020681
     24 C10         3.3590    4.6150   -0.0030 c3        1 MOL     -0.246528
     25 C11         3.6250    5.9700    0.6480 c3        1 MOL      0.006969
     26 C12         2.8710    6.1420    1.9880 c3        1 MOL      0.309512
     27 N3          2.9860    7.4990    2.4450 n4        1 MOL     -0.462750
     28 H8          0.8700    2.7610    0.3210 hn        1 MOL      0.242568
     29 H9          0.9070    5.7520    0.2620 h1        1 MOL      0.046736
     30 H10         2.4040    5.5840   -1.4530 hc        1 MOL      0.050888
     31 H11         2.1930    3.9170   -1.7680 hc        1 MOL      0.050888
     32 H12         4.2580    4.4530   -0.6050 hc        1 MOL      0.102743
     33 H13         3.1940    3.8320    0.7320 hc        1 MOL      0.102743
     34 H14         3.2690    6.7900    0.0140 hc        1 MOL      0.016745
     35 H15         4.6790    6.0460    0.9000 hc        1 MOL      0.016745
     36 H16         3.2940    5.4700    2.7280 hx        1 MOL     -0.008562
     37 H17         1.8420    5.7960    1.8740 hx        1 MOL     -0.008562
     38 H18         2.4860    7.4560    3.3260 hn        1 MOL      0.336365
     39 H19         3.9000    7.7650    2.7760 hn        1 MOL      0.336365
     40 H20         2.4430    8.2050    1.9780 hn        1 MOL      0.336365
     41 N4         -1.4070    4.5980   -1.4990 n         1 MOL     -0.283091
     42 C13        -2.4210    4.9490   -2.4750 c3        1 MOL      0.167517
     43 C14        -3.7590    4.8360   -1.8670 c         1 MOL      0.432842
     44 O6         -4.6440    5.5030   -2.3990 o         1 MOL     -0.536730
     45 C15        -2.3150    4.0140   -3.6970 c3        1 MOL     -0.200300
     46 C16        -1.9680    2.5510   -3.2150 c         1 MOL      0.730925
     47 O7         -0.8080    2.1360   -3.3050 o         1 MOL     -0.705772
     48 O8         -2.8250    1.7390   -2.8390 o         1 MOL     -0.705772
     49 H21        -1.6120    3.8460   -0.8620 hn        1 MOL     -0.016562
     50 H22        -2.4010    5.9900   -2.8170 h1        1 MOL      0.060027
     51 H23        -1.5460    4.2410   -4.4320 hc        1 MOL      0.055691
     52 H24        -3.2920    4.1520   -4.1700 hc        1 MOL      0.055691
     53 N5         -3.9840    4.0660   -0.8230 n         1 MOL     -0.321728
     54 C17        -5.2500    4.0460   -0.1420 c3        1 MOL     -0.180976
     55 C18        -6.1830    2.8320   -0.4510 c         1 MOL      0.500304
     56 O9         -7.3500    2.8660   -0.0480 o         1 MOL     -0.548315
     57 H25        -3.2660    3.4330   -0.4910 hn        1 MOL      0.389116
     58 H26        -5.8750    4.8990   -0.4310 h1        1 MOL      0.117128
     59 H27        -5.0880    4.0610    0.9260 h1        1 MOL      0.117128
     60 N6         -5.5900    1.8240   -1.1550 n         1 MOL     -0.190137
     61 C19        -6.4250    0.5850   -1.5170 c3        1 MOL     -0.014392
     62 C20        -6.7800   -0.3290   -0.4010 c         1 MOL      0.284210
     63 O10        -7.5900   -1.2210   -0.5200 o         1 MOL     -0.492170
     64 C21        -5.9020   -0.2010   -2.7150 c3        1 MOL     -0.066730
     65 C22        -4.7240   -1.1110   -2.3680 c         1 MOL      0.624392
     66 N7         -4.8130   -2.2670   -2.9140 n         1 MOL     -0.697774
     67 O11        -3.8180   -0.7730   -1.6050 o         1 MOL     -0.670068
     68 H28        -4.6270    1.9490   -1.4180 hn        1 MOL      0.110104
     69 H29        -7.4260    0.8640   -1.8610 h1        1 MOL      0.104605
     70 H30        -5.6000    0.5140   -3.4770 hc        1 MOL      0.040649
     71 H31        -6.6760   -0.8460   -3.1130 hc        1 MOL      0.040649
     72 H32        -5.6050   -2.4720   -3.5210 hn        1 MOL      0.354602
     73 H33        -4.0390   -2.8940   -2.7660 hn        1 MOL      0.354602
     74 N8         -6.0260   -0.2580    0.6720 n         1 MOL      0.101644
     75 C23        -6.2030   -1.0790    1.8570 c3        1 MOL     -0.368856
     76 C24        -5.1350   -2.0670    2.1920 c         1 MOL      0.774076
     77 O12        -5.2550   -2.9320    3.0340 o         1 MOL     -0.594088
     78 H34        -5.2810    0.4230    0.5880 hn        1 MOL      0.089277
     79 H35        -7.1660   -1.5970    1.7800 h1        1 MOL      0.125436
     80 H36        -6.2750   -0.3940    2.7070 h1        1 MOL      0.125436
     81 N9         -3.9740   -1.8920    1.5690 n         1 MOL     -0.592433
     82 C25        -2.8700   -2.8710    1.5810 c3        1 MOL      0.483331
     83 C26        -1.4610   -2.1850    1.4190 c         1 MOL      0.317676
     84 O13        -1.4190   -1.2500    0.6180 o         1 MOL     -0.513988
     85 C27        -3.0900   -3.9600    0.4830 c3        1 MOL     -0.031775
     86 C28        -4.3090   -4.8810    0.5620 ca        1 MOL     -0.148198
     87 C29        -5.5430   -4.5150   -0.0950 ca        1 MOL     -0.091146
     88 C30        -4.2540   -6.1010    1.2950 ca        1 MOL     -0.091146
     89 C31        -6.6780   -5.3330    0.0890 ca        1 MOL     -0.246491
     90 C32        -5.3380   -7.0020    1.2820 ca        1 MOL     -0.246491
     91 C33        -6.5800   -6.6010    0.7310 ca        1 MOL      0.344275
     92 O14        -7.6280   -7.4430    0.7930 oh        1 MOL     -0.462709
     93 H37        -3.7600   -1.0560    1.0360 hn        1 MOL      0.243133
     94 H38        -2.8390   -3.3100    2.5830 h1        1 MOL     -0.047646
     95 H39        -2.1430   -4.5030    0.3940 hc        1 MOL      0.020921
     96 H40        -3.0180   -3.3510   -0.4220 hc        1 MOL      0.020921
     97 H41        -5.5670   -3.6070   -0.6840 ha        1 MOL      0.112187
     98 H42        -3.3700   -6.3390    1.8680 ha        1 MOL      0.112187
     99 H43        -7.5730   -4.9950   -0.4130 ha        1 MOL      0.134653
    100 H44        -5.1920   -8.0170    1.6030 ha        1 MOL      0.134653
    101 H45        -7.3460   -8.2590    1.2200 ho        1 MOL      0.344201
    102 N10        -0.4090   -2.6260    2.1320 n         1 MOL     -0.491813
    103 C34         0.9880   -2.1960    2.0270 c3        1 MOL     -0.052200
    104 C35         1.7010   -3.3300    1.3340 c         1 MOL      0.596446
    105 O15         1.7240   -4.4490    1.8240 o         1 MOL     -0.579504
    106 C36         1.7050   -1.7650    3.3090 c3        1 MOL      0.184903
    107 C37         0.8200   -0.7420    4.0840 c3        1 MOL      0.115469
    108 C38         3.0680   -1.1950    2.9140 c3        1 MOL     -0.317529
    109 C39         1.5010   -0.3450    5.3700 c3        1 MOL     -0.263799
    110 H46        -0.6000   -3.3130    2.8470 hn        1 MOL      0.305690
    111 H47         1.0070   -1.3360    1.3460 h1        1 MOL      0.129106
    112 H48         1.8180   -2.6240    3.9700 hc        1 MOL     -0.026974
    113 H49        -0.1300   -1.2170    4.3240 hc        1 MOL      0.016005
    114 H50         0.7930    0.0850    3.3700 hc        1 MOL      0.016005
    115 H51         3.5420   -0.7480    3.7870 hc        1 MOL      0.081078
    116 H52         3.6780   -1.9750    2.4710 hc        1 MOL      0.081078
    117 H53         2.8400   -0.4190    2.1870 hc        1 MOL      0.081078
    118 H54         0.7080    0.2300    5.8610 hc        1 MOL      0.061194
    119 H55         1.7080   -1.2140    5.9930 hc        1 MOL      0.061194
    120 H56         2.4700    0.1400    5.2410 hc        1 MOL      0.061194
    121 N11         2.3320   -3.0850    0.1940 n         1 MOL     -0.347148
    122 C40         3.2060   -4.0210   -0.5500 c3        1 MOL      0.096024
    123 C41         4.6360   -3.6910   -0.2040 c         1 MOL      0.236900
    124 O16         4.8550   -2.5930    0.3420 o         1 MOL     -0.174125
    125 C42         2.9360   -3.8580   -2.1060 c3        1 MOL     -0.083144
    126 O17         3.8000   -2.8790   -2.6620 oh        1 MOL     -0.422010
    127 H57         2.3740   -2.0980   -0.0330 hn        1 MOL      0.247997
    128 H58         2.9940   -5.0390   -0.2240 h1        1 MOL      0.088421
    129 H59         1.8920   -3.5790   -2.2750 h1        1 MOL      0.066769
    130 H60         3.1180   -4.8080   -2.6110 h1        1 MOL      0.066769
    131 H61         3.6260   -2.9470   -3.6040 ho        1 MOL      0.385343
    132 N12         5.6880   -4.5660   -0.5060 n         1 MOL     -0.388423
    133 C43         7.1110   -4.2060   -0.3050 c3        1 MOL      0.109868
    134 C44         7.4670   -2.9580   -1.1700 c         1 MOL      0.468843
    135 O18         8.2350   -2.0910   -0.7450 o         1 MOL     -0.530240
    136 C45         7.9890   -5.4640   -0.6450 c3        1 MOL     -0.316175
    137 H62         5.4650   -5.4330   -0.9620 hn        1 MOL      0.286825
    138 H63         7.2140   -3.8740    0.7200 h1        1 MOL      0.089695
    139 H64         9.0430   -5.3060   -0.4350 hc        1 MOL      0.106144
    140 H65         7.6870   -6.2400    0.0620 hc        1 MOL      0.106144
    141 H66         7.9000   -5.7440   -1.6970 hc        1 MOL      0.106144
    142 N13         6.9920   -2.8260   -2.4070 n         1 MOL     -0.379052
    143 C46         6.9410   -1.5860   -3.2120 c3        1 MOL      0.073806
    144 C47         6.4740   -0.2860   -2.5150 c         1 MOL      0.441621
    145 O19         6.8160    0.7690   -2.9850 o         1 MOL     -0.535218
    146 C48         6.1730   -1.8310   -4.5430 c3        1 MOL     -0.173566
    147 H67         6.3620   -3.5680   -2.6870 hn        1 MOL      0.221713
    148 H68         7.9750   -1.3570   -3.5050 h1        1 MOL      0.098946
    149 H69         6.5140   -1.0720   -5.2450 hc        1 MOL      0.051884
    150 H70         6.4730   -2.7970   -4.9570 hc        1 MOL      0.051884
    151 H71         5.0950   -1.8470   -4.4170 hc        1 MOL      0.051884
    152 N14         5.8070   -0.4100   -1.3530 n         1 MOL      0.018478
    153 C49         5.4100    0.6420   -0.4150 c3        1 MOL     -0.057953
    154 C50         6.1640    0.5140    0.9060 c         1 MOL      0.430823
    155 O20         6.6340    1.5820    1.3430 o         1 MOL     -0.552002
    156 C51         3.8970    0.6800   -0.1490 c3        1 MOL      0.073780
    157 C52         2.9680    0.9990   -1.3120 c3        1 MOL      0.132662
    158 C53         1.5600    0.5600   -1.1070 c         1 MOL      0.693529
    159 O21         1.2770   -0.4990   -1.7060 o         1 MOL     -0.779353
    160 O22         0.7700    1.1330   -0.4170 o         1 MOL     -0.779353
    161 H72         5.4730   -1.3240   -1.1080 hn        1 MOL     -0.075300
    162 H73         5.6830    1.5900   -0.8970 h1        1 MOL      0.081283
    163 H74         3.7720    1.4830    0.5670 hc        1 MOL     -0.040791
    164 H75         3.6970   -0.3060    0.2880 hc        1 MOL     -0.040791
    165 H76         3.3210    0.3850   -2.1350 hc        1 MOL     -0.063746
    166 H77         3.0360    2.0690   -1.5300 hc        1 MOL     -0.063746
    167 N15         6.4820   -0.6350    1.4850 n         1 MOL     -0.098062
    168 C54         7.2880   -0.6570    2.7040 c3        1 MOL     -0.344875
    169 H78         8.2500   -0.1810    2.5110 h1        1 MOL      0.128149
    170 H79         6.7680   -0.1150    3.4940 h1        1 MOL      0.128149
    171 H80         7.4480   -1.6880    3.0160 h1        1 MOL      0.128149
    172 H81         5.9580   -1.4380    1.1450 hn        1 MOL      0.113206
    173 Ca1        -1.2950    0.1230   -1.4940 Ca        1 MOL      1.762152
    174 O23        -1.2970   -0.9260   -3.9970 oh        1 MOL     -0.817515
    175 H82        -1.3480   -0.3290   -4.7440 ho        1 MOL      0.397622
    176 H83        -1.4700   -1.7880   -4.3760 ho        1 MOL      0.397622
    177 O24        -0.4430   -2.5620   -1.9470 oh        1 MOL     -0.817515
    178 H84         0.4270   -2.2410   -2.1850 ho        1 MOL      0.397622
    179 H85        -0.4620   -3.4650   -2.2920 ho        1 MOL      0.397622
@<TRIPOS>BOND
     1    1    2 1   
     2    1    4 1   
     3    1    5 1   
     4    1    6 1   
     5    2    3 2   
     6    2    7 1   
     7    7    8 1   
     8    7   15 1   
     9    8    9 1   
    10    8   11 1   
    11    8   16 1   
    12    9   10 2   
    13    9   19 1   
    14   11   12 1   
    15   11   17 1   
    16   11   18 1   
    17   12   13 1   
    18   12   14 1   
    19   19   20 1   
    20   19   28 1   
    21   20   21 1   
    22   20   23 1   
    23   20   29 1   
    24   21   22 2   
    25   21   41 1   
    26   23   24 1   
    27   23   30 1   
    28   23   31 1   
    29   24   25 1   
    30   24   32 1   
    31   24   33 1   
    32   25   26 1   
    33   25   34 1   
    34   25   35 1   
    35   26   27 1   
    36   26   36 1   
    37   26   37 1   
    38   27   38 1   
    39   27   39 1   
    40   27   40 1   
    41   41   42 1   
    42   41   49 1   
    43   42   43 1   
    44   42   45 1   
    45   42   50 1   
    46   43   44 2   
    47   43   53 1   
    48   45   46 1   
    49   45   51 1   
    50   45   52 1   
    51   46   47 1   
    52   46   48 1   
    53   53   54 1   
    54   53   57 1   
    55   54   55 1   
    56   54   58 1   
    57   54   59 1   
    58   55   56 2   
    59   55   60 1   
    60   60   61 1   
    61   60   68 1   
    62   61   62 1   
    63   61   64 1   
    64   61   69 1   
    65   62   63 2   
    66   62   74 1   
    67   64   65 1   
    68   64   70 1   
    69   64   71 1   
    70   65   66 1   
    71   65   67 2   
    72   66   72 1   
    73   66   73 1   
    74   74   75 1   
    75   74   78 1   
    76   75   76 1   
    77   75   79 1   
    78   75   80 1   
    79   76   77 2   
    80   76   81 1   
    81   81   82 1   
    82   81   93 1   
    83   82   83 1   
    84   82   85 1   
    85   82   94 1   
    86   83   84 2   
    87   83  102 1   
    88   85   86 1   
    89   85   95 1   
    90   85   96 1   
    91   86   87 ar  
    92   86   88 ar  
    93   87   89 ar  
    94   87   97 1   
    95   88   90 ar  
    96   88   98 1   
    97   89   91 ar  
    98   89   99 1   
    99   90   91 ar  
   100   90  100 1   
   101   91   92 1   
   102   92  101 1   
   103  102  103 1   
   104  102  110 1   
   105  103  104 1   
   106  103  106 1   
   107  103  111 1   
   108  104  105 2   
   109  104  121 1   
   110  106  107 1   
   111  106  108 1   
   112  106  112 1   
   113  107  109 1   
   114  107  113 1   
   115  107  114 1   
   116  108  115 1   
   117  108  116 1   
   118  108  117 1   
   119  109  118 1   
   120  109  119 1   
   121  109  120 1   
   122  121  122 1   
   123  121  127 1   
   124  122  123 1   
   125  122  125 1   
   126  122  128 1   
   127  123  124 2   
   128  123  132 1   
   129  125  126 1   
   130  125  129 1   
   131  125  130 1   
   132  126  131 1   
   133  132  133 1   
   134  132  137 1   
   135  133  134 1   
   136  133  136 1   
   137  133  138 1   
   138  134  135 2   
   139  134  142 1   
   140  136  139 1   
   141  136  140 1   
   142  136  141 1   
   143  142  143 1   
   144  142  147 1   
   145  143  144 1   
   146  143  146 1   
   147  143  148 1   
   148  144  145 2   
   149  144  152 1   
   150  146  149 1   
   151  146  150 1   
   152  146  151 1   
   153  152  153 1   
   154  152  161 1   
   155  153  154 1   
   156  153  156 1   
   157  153  162 1   
   158  154  155 2   
   159  154  167 1   
   160  156  157 1   
   161  156  163 1   
   162  156  164 1   
   163  157  158 1   
   164  157  165 1   
   165  157  166 1   
   166  158  159 1   
   167  158  160 1   
   168  167  168 1   
   169  167  172 1   
   170  168  169 1   
   171  168  170 1   
   172  168  171 1   
   173  174  175 1   
   174  174  176 1   
   175  177  178 1   
   176  177  179 1   
@<TRIPOS>SUBSTRUCTURE
     1 MOL         1 TEMP              0 ****  ****    0 ROOT
