@<TRIPOS>MOLECULE
MOL
  189   185     1     0     0
SMALL
resp


@<TRIPOS>ATOM
      1 C1          1.1020   -4.5200    5.7070 c3        1 MOL     -0.383503
      2 C2          1.5730   -3.8150    4.3230 c         1 MOL      0.662530
      3 O1          1.2160   -2.6250    4.1530 o         1 MOL     -0.568899
      4 H1          0.4110   -5.3320    5.4830 hc        1 MOL      0.100482
      5 H2          1.9720   -4.9180    6.2280 hc        1 MOL      0.100482
      6 H3          0.6050   -3.7840    6.3390 hc        1 MOL      0.100482
      7 N1          2.4480   -4.4340    3.5150 n         1 MOL     -0.580434
      8 C3          2.9590   -3.8510    2.2860 c3        1 MOL      0.388598
      9 C4          2.8440   -4.8370    1.1210 c         1 MOL      0.427123
     10 O2          3.1410   -5.9750    1.3820 o         1 MOL     -0.580619
     11 C5          4.3910   -3.3630    2.3940 c3        1 MOL     -0.248084
     12 C6          4.8530   -2.3680    1.3310 c         1 MOL      0.743054
     13 O3          5.8050   -1.6160    1.6420 o         1 MOL     -0.689225
     14 O4          4.0810   -2.0230    0.4100 o         1 MOL     -0.689225
     15 H4          2.5820   -5.4200    3.6770 hn        1 MOL      0.295519
     16 H5          2.3590   -2.9930    2.0110 h1        1 MOL     -0.045987
     17 H6          5.1510   -4.1240    2.5540 hc        1 MOL      0.040597
     18 H7          4.2780   -2.9170    3.3810 hc        1 MOL      0.040597
     19 N2          2.4690   -4.3900   -0.0840 n         1 MOL     -0.186755
     20 C7          2.4680   -5.2310   -1.3240 c3        1 MOL     -0.231190
     21 C8          3.5000   -4.6860   -2.3570 c         1 MOL      0.799433
     22 O5          4.0370   -5.4640   -3.0930 o         1 MOL     -0.641005
     23 C9          1.0170   -5.4340   -1.8550 c3        1 MOL      0.264045
     24 C10         0.1770   -6.3860   -1.0000 c3        1 MOL     -0.030516
     25 C11         0.9170   -5.7900   -3.3600 c3        1 MOL     -0.228635
     26 C12        -1.2880   -6.3920   -1.4080 c3        1 MOL     -0.077341
     27 H8          2.0050   -3.4930   -0.0890 hn        1 MOL      0.117336
     28 H9          2.8830   -6.1870   -1.0240 h1        1 MOL      0.083648
     29 H10         0.5570   -4.4480   -1.7740 hc        1 MOL      0.016413
     30 H11         0.2100   -6.0000    0.0210 hc        1 MOL      0.001826
     31 H12         0.5810   -7.3950   -1.0960 hc        1 MOL      0.001826
     32 H13        -0.0890   -6.1150   -3.6250 hc        1 MOL      0.041238
     33 H14         1.0650   -4.9360   -4.0080 hc        1 MOL      0.041238
     34 H15         1.5080   -6.6610   -3.6470 hc        1 MOL      0.041238
     35 H16        -1.3860   -7.0180   -2.2980 hc        1 MOL      0.018197
     36 H17        -2.0040   -6.7920   -0.6900 hc        1 MOL      0.018197
     37 H18        -1.5350   -5.3490   -1.6130 hc        1 MOL      0.018197
     38 N3          3.9250   -3.4190   -2.3310 n         1 MOL     -0.584776
     39 C13         4.6380   -2.8150   -3.4270 c3        1 MOL      0.092978
     40 C14         5.8570   -2.0320   -3.0500 c         1 MOL      0.373305
     41 O6          6.6490   -1.6060   -3.9230 o         1 MOL     -0.523509
     42 C15         3.7250   -1.8180   -4.2720 c3        1 MOL     -0.415840
     43 C16         2.9440   -0.8930   -3.3590 c         1 MOL      0.862171
     44 O7          3.3200   -0.7010   -2.1520 o         1 MOL     -0.703473
     45 O8          1.9240   -0.4150   -3.8420 o         1 MOL     -0.703473
     46 H19         3.6260   -2.8210   -1.5740 hn        1 MOL      0.346122
     47 H20         4.9610   -3.5630   -4.1530 h1        1 MOL      0.113177
     48 H21         2.9790   -2.4260   -4.7940 hc        1 MOL      0.109728
     49 H22         4.2720   -1.1930   -4.9750 hc        1 MOL      0.109728
     50 N4          6.1690   -1.8330   -1.6860 n         1 MOL     -0.194289
     51 C17         7.4230   -1.3160   -1.1940 c3        1 MOL     -0.056963
     52 C18         7.5910    0.2040   -1.4750 c         1 MOL      0.353901
     53 O9          8.7890    0.6290   -1.6350 o         1 MOL     -0.589795
     54 H23         5.4560   -1.9420   -0.9880 hn        1 MOL      0.080112
     55 H24         8.2120   -1.8790   -1.7010 h1        1 MOL      0.074832
     56 H25         7.5990   -1.5760   -0.1480 h1        1 MOL      0.074832
     57 N5          6.5190    0.9560   -1.5520 n         1 MOL     -0.065172
     58 C19         6.5530    2.4450   -1.8630 c3        1 MOL     -0.137026
     59 C20         6.7680    3.2850   -0.5910 c         1 MOL      0.437877
     60 O10         7.0530    4.4420   -0.6800 o         1 MOL     -0.543119
     61 C21         5.3740    3.0230   -2.6290 c3        1 MOL     -0.132484
     62 C22         4.0330    2.6990   -1.9390 c         1 MOL      0.692598
     63 O11         3.9790    2.0740   -0.9090 o         1 MOL     -0.741069
     64 O12         2.9560    3.0540   -2.5140 o         1 MOL     -0.741069
     65 H26         5.6240    0.4800   -1.5610 hn        1 MOL      0.214888
     66 H27         7.4680    2.4530   -2.4560 h1        1 MOL      0.117842
     67 H28         5.3720    2.6330   -3.6390 hc        1 MOL      0.054341
     68 H29         5.5170    4.0970   -2.7810 hc        1 MOL      0.054341
     69 N6          6.5920    2.7480    0.5580 n         1 MOL     -0.210400
     70 C23         6.6200    3.4980    1.8740 c3        1 MOL     -0.134572
     71 C24         5.3000    4.3150    2.1600 c         1 MOL      0.456115
     72 O13         5.2890    5.3150    2.8780 o         1 MOL     -0.561465
     73 H30         6.3220    1.7760    0.5390 hn        1 MOL      0.197191
     74 H31         7.5190    4.1180    1.9220 h1        1 MOL      0.092209
     75 H32         6.7640    2.7600    2.6550 h1        1 MOL      0.092209
     76 N7          4.0950    3.8920    1.6770 n         1 MOL     -0.106853
     77 C25         2.8380    4.5250    2.0040 c3        1 MOL      0.031447
     78 C26         1.8080    3.4610    1.9690 c         1 MOL      0.341091
     79 O14         1.9810    2.4270    1.2770 o         1 MOL     -0.530216
     80 C27         2.4680    5.7200    1.1000 c3        1 MOL     -0.107689
     81 C28         2.5490    5.4420   -0.4490 c3        1 MOL      0.005125
     82 C29         2.3790    6.7100   -1.2270 c         1 MOL      0.599510
     83 N8          2.4630    6.7400   -2.5550 n         1 MOL     -0.774502
     84 O15         2.0000    7.7140   -0.7190 o         1 MOL     -0.580255
     85 H33         4.0700    3.0380    1.1370 hn        1 MOL      0.097618
     86 H34         2.9580    4.8920    3.0180 h1        1 MOL      0.024019
     87 H35         3.0790    6.5780    1.3500 hc        1 MOL      0.034619
     88 H36         1.4370    6.0040    1.3060 hc        1 MOL      0.034619
     89 H37         1.6960    4.8250   -0.7260 hc        1 MOL      0.084315
     90 H38         3.5160    4.9990   -0.6690 hc        1 MOL      0.084315
     91 H39         2.7520    5.9650   -3.1340 hn        1 MOL      0.337064
     92 H40         2.3350    7.6480   -2.9740 hn        1 MOL      0.337064
     93 N9          0.6640    3.7570    2.5710 n         1 MOL     -0.284492
     94 C30        -0.5080    2.7720    2.5340 c3        1 MOL      0.003325
     95 C31        -1.5380    3.0720    1.4660 c         1 MOL      0.502242
     96 O16        -2.0270    4.2090    1.2950 o         1 MOL     -0.596238
     97 C32        -1.1640    2.7430    3.9320 c3        1 MOL      0.300214
     98 C33        -2.1630    1.6240    4.0860 c3        1 MOL     -0.201919
     99 C34        -0.1460    2.6950    5.0370 c3        1 MOL     -0.201919
    100 H41         0.5930    4.6540    3.0180 hn        1 MOL      0.270152
    101 H42        -0.1880    1.7450    2.3720 h1        1 MOL      0.132482
    102 H43        -1.6860    3.7070    3.9490 hc        1 MOL     -0.060401
    103 H44        -2.9540    1.6570    3.3340 hc        1 MOL      0.026646
    104 H45        -1.6700    0.6540    4.0580 hc        1 MOL      0.026646
    105 H46        -2.6140    1.8020    5.0680 hc        1 MOL      0.026646
    106 H47         0.7190    2.0730    4.8200 hc        1 MOL      0.026646
    107 H48         0.2700    3.7030    5.0550 hc        1 MOL      0.026646
    108 H49        -0.6250    2.4860    5.9910 hc        1 MOL      0.026646
    109 N10        -1.9360    2.0120    0.7720 n         1 MOL     -0.322664
    110 C35        -2.9570    1.8920   -0.3030 c3        1 MOL      0.347430
    111 C36        -4.2800    1.3100    0.2910 c         1 MOL      0.062307
    112 O17        -4.2550    0.6110    1.3290 o         1 MOL     -0.080328
    113 C37        -2.3590    1.1110   -1.4680 c3        1 MOL     -0.197321
    114 C38        -3.2370    1.0870   -2.7100 c         1 MOL      0.618373
    115 N11        -3.4640    2.2370   -3.2780 n         1 MOL     -0.674473
    116 O18        -3.7820    0.0230   -3.0500 o         1 MOL     -0.551385
    117 H50        -1.4220    1.1610    0.9230 hn        1 MOL      0.111738
    118 H51        -3.1040    2.9070   -0.6650 h1        1 MOL     -0.004780
    119 H52        -2.2520    0.1140   -1.0370 hc        1 MOL      0.069666
    120 H53        -1.4630    1.6370   -1.7970 hc        1 MOL      0.069666
    121 H54        -3.1260    3.1490   -2.9890 hn        1 MOL      0.317524
    122 H55        -4.0150    2.2820   -4.1270 hn        1 MOL      0.317524
    123 N12        -5.4310    1.5690   -0.3650 n         1 MOL     -0.270812
    124 C39        -6.7340    0.9880   -0.0810 c3        1 MOL      0.095556
    125 C40        -6.6980   -0.4790    0.3350 c         1 MOL      0.460495
    126 O19        -7.3450   -0.8270    1.3720 o         1 MOL     -0.540265
    127 C41        -7.7490    1.1330   -1.2590 c3        1 MOL     -0.139138
    128 C42        -8.3770    2.4910   -1.3820 ca        1 MOL      0.166120
    129 C43        -9.4650    2.8010   -0.5860 ca        1 MOL     -0.146347
    130 C44        -8.0000    3.3600   -2.4190 ca        1 MOL     -0.146347
    131 C45       -10.0970    4.0160   -0.7490 ca        1 MOL     -0.325177
    132 C46        -8.7930    4.5110   -2.7050 ca        1 MOL     -0.325177
    133 C47        -9.8100    4.8860   -1.8300 ca        1 MOL      0.388231
    134 O20       -10.4070    6.1300   -1.9900 oh        1 MOL     -0.512124
    135 H56        -5.3160    2.0260   -1.2520 hn        1 MOL      0.124995
    136 H57        -7.0300    1.4840    0.8500 h1        1 MOL      0.049620
    137 H58        -8.5240    0.3650   -1.2400 hc        1 MOL      0.051451
    138 H59        -7.1960    1.0300   -2.2000 hc        1 MOL      0.051451
    139 H60        -9.7780    2.1550    0.2280 ha        1 MOL      0.148402
    140 H61        -7.1930    3.0680   -3.0880 ha        1 MOL      0.148402
    141 H62       -10.7500    4.3600    0.0420 ha        1 MOL      0.149541
    142 H63        -8.5660    5.2070   -3.5000 ha        1 MOL      0.149541
    143 H64       -10.0100    6.6160   -2.7200 ho        1 MOL      0.346252
    144 N13        -5.9720   -1.3010   -0.4440 n         1 MOL     -0.357150
    145 C48        -5.9680   -2.7750   -0.4310 c3        1 MOL     -0.253678
    146 C49        -5.0560   -3.3090    0.6150 c         1 MOL      0.419836
    147 O21        -5.0340   -4.5440    0.8750 o         1 MOL     -0.527680
    148 C50        -5.7180   -3.4240   -1.7960 c3        1 MOL      0.037075
    149 C51        -6.6430   -3.0750   -2.9050 c3        1 MOL     -0.120471
    150 C52        -8.1470   -3.3320   -2.4700 c         1 MOL      0.686565
    151 O22        -9.0210   -2.4330   -2.6570 o         1 MOL     -0.712907
    152 O23        -8.5310   -4.3840   -1.9080 o         1 MOL     -0.712907
    153 H65        -5.6470   -0.8260   -1.2780 hn        1 MOL      0.360445
    154 H66        -7.0010   -3.0790   -0.2450 h1        1 MOL      0.236036
    155 H67        -5.9360   -4.4840   -1.6670 hc        1 MOL      0.027837
    156 H68        -4.6680   -3.3780   -2.0890 hc        1 MOL      0.027837
    157 H69        -6.4080   -3.6180   -3.8220 hc        1 MOL     -0.020257
    158 H70        -6.5510   -2.0200   -3.1410 hc        1 MOL     -0.020257
    159 N14        -4.1590   -2.4650    1.2600 n         1 MOL     -0.137678
    160 C53        -3.3100   -2.7330    2.4420 c3        1 MOL      0.026799
    161 C54        -3.9260   -2.2220    3.7580 c         1 MOL      0.432763
    162 O24        -4.0560   -2.8640    4.7620 o         1 MOL     -0.575461
    163 C55        -2.0110   -1.9510    2.2410 c3        1 MOL      0.064119
    164 C56        -1.2870   -2.2580    0.8940 c3        1 MOL     -0.149506
    165 C57        -0.1030   -1.3420    0.5450 c         1 MOL      0.913802
    166 O25         0.8970   -1.7530   -0.1020 o         1 MOL     -0.819646
    167 O26        -0.0400   -0.1850    0.9770 o         1 MOL     -0.819646
    168 H71        -4.1240   -1.5750    0.7800 hn        1 MOL      0.137818
    169 H72        -3.0860   -3.7880    2.5740 h1        1 MOL      0.048963
    170 H73        -1.3260   -2.2380    3.0310 hc        1 MOL      0.016081
    171 H74        -2.3360   -0.9090    2.2830 hc        1 MOL      0.016081
    172 H75        -2.0370   -2.2140    0.1040 hc        1 MOL      0.022291
    173 H76        -0.9820   -3.3070    0.8800 hc        1 MOL      0.022291
    174 N15        -4.4210   -1.0110    3.7220 n         1 MOL      0.060195
    175 C58        -5.0880   -0.3290    4.8860 c3        1 MOL     -0.206588
    176 H77        -5.8610   -0.9800    5.2940 h1        1 MOL      0.086109
    177 H78        -4.3470   -0.1190    5.6580 h1        1 MOL      0.086109
    178 H79        -5.5400    0.6040    4.5510 h1        1 MOL      0.086109
    179 H80        -4.2380   -0.5380    2.8500 hn        1 MOL     -0.186531
    180 Ca1         2.5220    0.2210    0.0850 Ca        1 MOL      1.787072
    181 O27         2.3850   -0.4140    2.6550 oh        1 MOL     -0.785920
    182 H81         3.0380   -0.1440    3.3000 ho        1 MOL      0.381741
    183 H82         1.7690   -0.9520    3.1490 ho        1 MOL      0.381741
    184 O28         4.7290    0.7660    1.9140 oh        1 MOL     -0.785920
    185 H83         5.0270   -0.1200    1.7300 ho        1 MOL      0.381741
    186 H84         4.6720    0.8140    2.8670 ho        1 MOL      0.381741
    187 O29         1.0110    1.2890   -1.9210 oh        1 MOL     -0.785920
    188 H85         1.3810    2.1360   -2.1760 ho        1 MOL      0.381741
    189 H86         1.0260    0.7690   -2.7270 ho        1 MOL      0.381741
@<TRIPOS>BOND
     1    1    2 1   
     2    1    4 1   
     3    1    5 1   
     4    1    6 1   
     5    2    3 2   
     6    2    7 1   
     7    7    8 1   
     8    7   15 1   
     9    8    9 1   
    10    8   11 1   
    11    8   16 1   
    12    9   10 2   
    13    9   19 1   
    14   11   12 1   
    15   11   17 1   
    16   11   18 1   
    17   12   13 1   
    18   12   14 1   
    19   19   20 1   
    20   19   27 1   
    21   20   21 1   
    22   20   23 1   
    23   20   28 1   
    24   21   22 2   
    25   21   38 1   
    26   23   24 1   
    27   23   25 1   
    28   23   29 1   
    29   24   26 1   
    30   24   30 1   
    31   24   31 1   
    32   25   32 1   
    33   25   33 1   
    34   25   34 1   
    35   26   35 1   
    36   26   36 1   
    37   26   37 1   
    38   38   39 1   
    39   38   46 1   
    40   39   40 1   
    41   39   42 1   
    42   39   47 1   
    43   40   41 2   
    44   40   50 1   
    45   42   43 1   
    46   42   48 1   
    47   42   49 1   
    48   43   44 1   
    49   43   45 1   
    50   50   51 1   
    51   50   54 1   
    52   51   52 1   
    53   51   55 1   
    54   51   56 1   
    55   52   53 2   
    56   52   57 1   
    57   57   58 1   
    58   57   65 1   
    59   58   59 1   
    60   58   61 1   
    61   58   66 1   
    62   59   60 2   
    63   59   69 1   
    64   61   62 1   
    65   61   67 1   
    66   61   68 1   
    67   62   63 1   
    68   62   64 1   
    69   69   70 1   
    70   69   73 1   
    71   70   71 1   
    72   70   74 1   
    73   70   75 1   
    74   71   72 2   
    75   71   76 1   
    76   76   77 1   
    77   76   85 1   
    78   77   78 1   
    79   77   80 1   
    80   77   86 1   
    81   78   79 2   
    82   78   93 1   
    83   80   81 1   
    84   80   87 1   
    85   80   88 1   
    86   81   82 1   
    87   81   89 1   
    88   81   90 1   
    89   82   83 1   
    90   82   84 2   
    91   83   91 1   
    92   83   92 1   
    93   93   94 1   
    94   93  100 1   
    95   94   95 1   
    96   94   97 1   
    97   94  101 1   
    98   95   96 2   
    99   95  109 1   
   100   97   98 1   
   101   97   99 1   
   102   97  102 1   
   103   98  103 1   
   104   98  104 1   
   105   98  105 1   
   106   99  106 1   
   107   99  107 1   
   108   99  108 1   
   109  109  110 1   
   110  109  117 1   
   111  110  111 1   
   112  110  113 1   
   113  110  118 1   
   114  111  112 2   
   115  111  123 1   
   116  113  114 1   
   117  113  119 1   
   118  113  120 1   
   119  114  115 1   
   120  114  116 2   
   121  115  121 1   
   122  115  122 1   
   123  123  124 1   
   124  123  135 1   
   125  124  125 1   
   126  124  127 1   
   127  124  136 1   
   128  125  126 2   
   129  125  144 1   
   130  127  128 1   
   131  127  137 1   
   132  127  138 1   
   133  128  129 ar  
   134  128  130 ar  
   135  129  131 ar  
   136  129  139 1   
   137  130  132 ar  
   138  130  140 1   
   139  131  133 ar  
   140  131  141 1   
   141  132  133 ar  
   142  132  142 1   
   143  133  134 1   
   144  134  143 1   
   145  144  145 1   
   146  144  153 1   
   147  145  146 1   
   148  145  148 1   
   149  145  154 1   
   150  146  147 2   
   151  146  159 1   
   152  148  149 1   
   153  148  155 1   
   154  148  156 1   
   155  149  150 1   
   156  149  157 1   
   157  149  158 1   
   158  150  151 1   
   159  150  152 1   
   160  159  160 1   
   161  159  168 1   
   162  160  161 1   
   163  160  163 1   
   164  160  169 1   
   165  161  162 2   
   166  161  174 1   
   167  163  164 1   
   168  163  170 1   
   169  163  171 1   
   170  164  165 1   
   171  164  172 1   
   172  164  173 1   
   173  165  166 1   
   174  165  167 1   
   175  174  175 1   
   176  174  179 1   
   177  175  176 1   
   178  175  177 1   
   179  175  178 1   
   180  181  182 1   
   181  181  183 1   
   182  184  185 1   
   183  184  186 1   
   184  187  188 1   
   185  187  189 1   
@<TRIPOS>SUBSTRUCTURE
     1 MOL         1 TEMP              0 ****  ****    0 ROOT
