@<TRIPOS>MOLECULE
MOL
  189   185     1     0     0
SMALL
resp


@<TRIPOS>ATOM
      1 C1         -0.4610   -3.1880    6.1800 c3        1 MOL     -0.306013
      2 C2          0.2220   -2.8660    4.8310 c         1 MOL      0.735381
      3 O1          0.2140   -1.7130    4.4590 o         1 MOL     -0.612654
      4 H1         -1.3810   -3.7430    5.9970 hc        1 MOL      0.072983
      5 H2          0.2100   -3.7900    6.7930 hc        1 MOL      0.072983
      6 H3         -0.6950   -2.2600    6.7000 hc        1 MOL      0.072983
      7 N1          0.8120   -3.8500    4.1620 n         1 MOL     -0.613893
      8 C3          1.7030   -3.5620    2.9830 c3        1 MOL      0.290860
      9 C4          1.6710   -4.7270    1.9460 c         1 MOL      0.495891
     10 O2          1.6740   -5.8750    2.3900 o         1 MOL     -0.626182
     11 C5          3.1950   -3.2720    3.3460 c3        1 MOL     -0.161305
     12 C6          4.1000   -2.9880    2.0960 c         1 MOL      0.617763
     13 O3          5.1590   -3.5700    2.0320 o         1 MOL     -0.646988
     14 O4          3.6940   -2.3950    1.0950 o         1 MOL     -0.646988
     15 H4          0.7980   -4.8340    4.4090 hn        1 MOL      0.313114
     16 H5          1.3020   -2.6670    2.5050 h1        1 MOL     -0.006083
     17 H6          3.5370   -4.0820    4.0000 hc        1 MOL      0.006261
     18 H7          3.2540   -2.3810    3.9780 hc        1 MOL      0.006261
     19 N2          1.5610   -4.4430    0.6770 n         1 MOL     -0.067973
     20 C7          1.5880   -5.3930   -0.4570 c3        1 MOL     -0.037014
     21 C8          2.9810   -5.2960   -1.2120 c         1 MOL      0.558048
     22 O5          3.4060   -6.3010   -1.7610 o         1 MOL     -0.589635
     23 C9          0.4180   -5.1800   -1.3140 c3        1 MOL      0.171118
     24 C10        -0.9150   -5.5310   -0.5120 c3        1 MOL      0.081848
     25 C11         0.4280   -6.0450   -2.5830 c3        1 MOL     -0.132478
     26 C12        -2.1800   -5.2220   -1.2780 c3        1 MOL     -0.107022
     27 H8          1.5020   -3.4380    0.5720 hn        1 MOL     -0.122277
     28 H9          1.5430   -6.4290   -0.1140 h1        1 MOL      0.052148
     29 H10         0.4460   -4.1090   -1.5460 hc        1 MOL      0.025442
     30 H11        -0.8770   -4.8570    0.3460 hc        1 MOL     -0.054300
     31 H12        -0.7980   -6.5360   -0.1290 hc        1 MOL     -0.054300
     32 H13         0.2710   -7.1150   -2.4320 hc        1 MOL      0.019561
     33 H14        -0.3350   -5.7770   -3.3030 hc        1 MOL      0.019561
     34 H15         1.3650   -5.9360   -3.1270 hc        1 MOL      0.019561
     35 H16        -2.4020   -6.0950   -1.8860 hc        1 MOL      0.039319
     36 H17        -2.9830   -5.2280   -0.5500 hc        1 MOL      0.039319
     37 H18        -1.9330   -4.3270   -1.8520 hc        1 MOL      0.039319
     38 N3          3.6670   -4.1280   -1.3000 n         1 MOL     -0.526232
     39 C13         4.6550   -3.8140   -2.3640 c3        1 MOL      0.110239
     40 C14         5.9320   -3.0850   -1.8740 c         1 MOL      0.330763
     41 O6          6.6780   -2.7220   -2.7920 o         1 MOL     -0.539319
     42 C15         3.8540   -2.9710   -3.4350 c3        1 MOL     -0.144152
     43 C16         3.2140   -1.6120   -2.9020 c         1 MOL      0.649980
     44 O7          3.4550   -1.2320   -1.7530 o         1 MOL     -0.665486
     45 O8          2.3450   -1.0760   -3.6020 o         1 MOL     -0.665486
     46 H19         3.3480   -3.3260   -0.7690 hn        1 MOL      0.422988
     47 H20         5.0080   -4.7040   -2.8940 h1        1 MOL      0.086322
     48 H21         2.9610   -3.4910   -3.7840 hc        1 MOL      0.037953
     49 H22         4.4970   -2.8760   -4.3090 hc        1 MOL      0.037953
     50 N4          6.1820   -2.8370   -0.5680 n         1 MOL     -0.138576
     51 C17         7.4900   -2.3780   -0.1330 c3        1 MOL     -0.181524
     52 C18         7.6870   -0.8420   -0.3190 c         1 MOL      0.399126
     53 O9          8.7990   -0.3080   -0.1470 o         1 MOL     -0.592933
     54 H23         5.5630   -3.1710    0.1590 hn        1 MOL      0.187734
     55 H24         8.2680   -2.7910   -0.7810 h1        1 MOL      0.099137
     56 H25         7.7030   -2.6740    0.8910 h1        1 MOL      0.099137
     57 N5          6.6970   -0.1860   -0.8630 n         1 MOL      0.076287
     58 C19         7.0270    1.0380   -1.5350 c3        1 MOL     -0.114436
     59 C20         7.2620    2.2230   -0.5540 c         1 MOL      0.492338
     60 O10         7.9330    3.1930   -0.8830 o         1 MOL     -0.579005
     61 C21         5.9890    1.2870   -2.5740 c3        1 MOL     -0.185074
     62 C22         4.5300    1.6190   -2.0660 c         1 MOL      0.752517
     63 O11         4.2120    1.5680   -0.8380 o         1 MOL     -0.695172
     64 O12         3.7040    2.0320   -2.8920 o         1 MOL     -0.695172
     65 H26         5.8060   -0.6450   -0.8550 hn        1 MOL      0.041773
     66 H27         7.9700    0.8390   -2.0350 h1        1 MOL      0.115658
     67 H28         5.8930    0.4620   -3.2830 hc        1 MOL      0.059367
     68 H29         6.3160    2.0960   -3.2260 hc        1 MOL      0.059367
     69 N6          6.7520    2.1940    0.6360 n         1 MOL     -0.271623
     70 C23         6.8460    3.2680    1.6850 c3        1 MOL     -0.082374
     71 C24         5.6280    4.1990    1.6120 c         1 MOL      0.448357
     72 O13         5.6760    5.2790    2.1610 o         1 MOL     -0.593994
     73 H30         6.1830    1.3750    0.7510 hn        1 MOL      0.115545
     74 H31         7.7570    3.8570    1.5830 h1        1 MOL      0.095506
     75 H32         6.9370    2.9430    2.7200 h1        1 MOL      0.095506
     76 N7          4.6480    3.9210    0.7900 n         1 MOL     -0.240389
     77 C25         3.4000    4.6800    0.7880 c3        1 MOL      0.185580
     78 C26         2.1350    3.7520    1.1190 c         1 MOL      0.374815
     79 O14         2.3380    2.5530    1.3670 o         1 MOL     -0.476781
     80 C27         3.2760    5.3780   -0.5190 c3        1 MOL     -0.115151
     81 C28         4.3810    6.4350   -0.7660 c3        1 MOL     -0.222205
     82 C29         3.9380    7.5410   -1.7070 c         1 MOL      0.708335
     83 N8          3.5520    7.2670   -2.9310 n         1 MOL     -0.850893
     84 O15         4.1310    8.7320   -1.4070 o         1 MOL     -0.608975
     85 H33         4.6780    3.0550    0.2560 hn        1 MOL      0.234657
     86 H34         3.3870    5.4640    1.5590 h1        1 MOL      0.045042
     87 H35         2.3820    5.9780   -0.3650 hc        1 MOL      0.021848
     88 H36         3.2380    4.7030   -1.3770 hc        1 MOL      0.021848
     89 H37         5.2470    6.0300   -1.2880 hc        1 MOL      0.094933
     90 H38         4.7360    6.9280    0.1370 hc        1 MOL      0.094933
     91 H39         3.5350    6.2760   -3.1350 hn        1 MOL      0.380852
     92 H40         3.5220    7.9270   -3.6970 hn        1 MOL      0.380852
     93 N9          0.9420    4.3400    1.1750 n         1 MOL     -0.476358
     94 C30        -0.2480    3.5400    1.4450 c3        1 MOL     -0.014098
     95 C31        -1.2000    3.6020    0.2770 c         1 MOL      0.488332
     96 O16        -1.6640    4.6570   -0.0580 o         1 MOL     -0.587714
     97 C32        -0.8220    3.8980    2.8240 c3        1 MOL      0.131494
     98 C33        -2.1090    3.0650    3.2960 c3        1 MOL     -0.300311
     99 C34         0.2320    3.4550    3.8740 c3        1 MOL     -0.300311
    100 H41         0.8140    5.3230    0.9750 hn        1 MOL      0.323105
    101 H42        -0.0340    2.4750    1.4880 h1        1 MOL      0.160714
    102 H43        -1.0720    4.9560    2.9180 hc        1 MOL      0.016365
    103 H44        -2.8000    3.0120    2.4550 hc        1 MOL      0.071993
    104 H45        -1.9440    2.0230    3.5660 hc        1 MOL      0.071993
    105 H46        -2.5790    3.5980    4.1170 hc        1 MOL      0.071993
    106 H47         1.2080    3.9290    3.7370 hc        1 MOL      0.071993
    107 H48        -0.0060    3.7600    4.8910 hc        1 MOL      0.071993
    108 H49         0.2950    2.3640    3.9160 hc        1 MOL      0.071993
    109 N10        -1.4860    2.4340   -0.3040 n         1 MOL     -0.131737
    110 C35        -2.5680    2.3020   -1.2980 c3        1 MOL     -0.040665
    111 C36        -3.9320    1.9560   -0.6530 c         1 MOL      0.191533
    112 O17        -3.9700    1.3430    0.3690 o         1 MOL     -0.007592
    113 C37        -2.0340    1.2230   -2.2370 c3        1 MOL     -0.305059
    114 C38        -2.9020    1.0410   -3.5400 c         1 MOL      0.703856
    115 N11        -2.5390    1.5820   -4.6380 n         1 MOL     -0.721028
    116 O18        -4.0000    0.4040   -3.5500 o         1 MOL     -0.603789
    117 H50        -0.9740    1.6110   -0.0280 hn        1 MOL      0.109401
    118 H51        -2.6190    3.2370   -1.8530 h1        1 MOL      0.062527
    119 H52        -1.9820    0.2880   -1.6810 hc        1 MOL      0.133532
    120 H53        -1.0190    1.4960   -2.5190 hc        1 MOL      0.133532
    121 H54        -1.7720    2.2260   -4.6850 hn        1 MOL      0.345377
    122 H55        -3.1100    1.3740   -5.4510 hn        1 MOL      0.345377
    123 N12        -5.0300    2.1460   -1.3920 n         1 MOL     -0.267272
    124 C39        -6.3400    2.0130   -0.8150 c3        1 MOL     -0.030797
    125 C40        -6.6780    0.6410   -0.2530 c         1 MOL      0.739242
    126 O19        -7.2530    0.5210    0.8170 o         1 MOL     -0.582165
    127 C41        -7.3770    2.5460   -1.8130 c3        1 MOL     -0.089744
    128 C42        -8.8060    2.3030   -1.2810 ca        1 MOL     -0.040565
    129 C43        -9.3010    3.2710   -0.4530 ca        1 MOL     -0.124297
    130 C44        -9.6080    1.2260   -1.6650 ca        1 MOL     -0.124297
    131 C45       -10.6400    3.2280    0.0440 ca        1 MOL     -0.268986
    132 C46       -10.9500    1.1240   -1.1620 ca        1 MOL     -0.268986
    133 C47       -11.4500    2.1450   -0.2980 ca        1 MOL      0.379233
    134 O20       -12.7310    2.0670    0.0880 oh        1 MOL     -0.553924
    135 H56        -4.8950    2.6650   -2.2580 hn        1 MOL      0.226223
    136 H57        -6.4310    2.8090   -0.0780 h1        1 MOL      0.070968
    137 H58        -7.3380    2.2160   -2.8480 hc        1 MOL      0.059740
    138 H59        -7.2290    3.6050   -2.0120 hc        1 MOL      0.059740
    139 H60        -8.6860    4.0990   -0.1300 ha        1 MOL      0.128209
    140 H61        -9.2530    0.5110   -2.3950 ha        1 MOL      0.128209
    141 H62       -11.0730    4.0790    0.5410 ha        1 MOL      0.136180
    142 H63       -11.6330    0.3130   -1.3640 ha        1 MOL      0.136180
    143 H64       -13.0840    1.1860   -0.0070 ho        1 MOL      0.393014
    144 N13        -6.2820   -0.4770   -0.9320 n         1 MOL     -0.476946
    145 C48        -6.4250   -1.8960   -0.4810 c3        1 MOL     -0.000860
    146 C49        -5.5680   -2.3500    0.6850 c         1 MOL      0.305720
    147 O21        -5.8520   -3.3490    1.4190 o         1 MOL     -0.533999
    148 C50        -6.2990   -2.8940   -1.6110 c3        1 MOL      0.037825
    149 C51        -4.9110   -2.6050   -2.2310 c3        1 MOL     -0.072968
    150 C52        -4.7910   -3.6410   -3.3460 c         1 MOL      0.639275
    151 O22        -4.2780   -3.2900   -4.3790 o         1 MOL     -0.718454
    152 O23        -5.0800   -4.8560   -3.2020 o         1 MOL     -0.718454
    153 H65        -6.0190   -0.3360   -1.8960 hn        1 MOL      0.258945
    154 H66        -7.4760   -2.0180   -0.1840 h1        1 MOL      0.057482
    155 H67        -7.1060   -2.6930   -2.3190 hc        1 MOL     -0.005525
    156 H68        -6.4440   -3.9590   -1.4200 hc        1 MOL     -0.005525
    157 H69        -4.1160   -2.8910   -1.5520 hc        1 MOL      0.019855
    158 H70        -4.8410   -1.5770   -2.5850 hc        1 MOL      0.019855
    159 N14        -4.6280   -1.5110    1.0230 n         1 MOL      0.052538
    160 C53        -3.8620   -1.4130    2.2820 c3        1 MOL     -0.148560
    161 C54        -4.4590   -0.4010    3.3310 c         1 MOL      0.441488
    162 O24        -4.5910   -0.7370    4.5650 o         1 MOL     -0.566126
    163 C55        -2.4060   -1.0780    2.0650 c3        1 MOL      0.044668
    164 C56        -1.6650   -1.8950    0.9760 c3        1 MOL     -0.147891
    165 C57        -0.3490   -1.1950    0.5110 c         1 MOL      0.728474
    166 O25         0.6200   -1.8730    0.1420 o         1 MOL     -0.655207
    167 O26        -0.1260    0.0180    0.5950 o         1 MOL     -0.655207
    168 H71        -4.4490   -0.7230    0.4070 hn        1 MOL      0.033985
    169 H72        -3.8520   -2.3900    2.7670 h1        1 MOL      0.090657
    170 H73        -1.8380   -1.0060    2.9950 hc        1 MOL      0.026009
    171 H74        -2.3650   -0.0380    1.7440 hc        1 MOL      0.026009
    172 H75        -2.3200   -1.9450    0.1060 hc        1 MOL      0.039139
    173 H76        -1.3710   -2.8640    1.3740 hc        1 MOL      0.039139
    174 N15        -4.9780    0.7590    2.8850 n         1 MOL      0.018996
    175 C58        -5.6940    1.6810    3.7180 c3        1 MOL     -0.316608
    176 H77        -6.7280    1.3510    3.8190 h1        1 MOL      0.097058
    177 H78        -5.2270    1.7190    4.7020 h1        1 MOL      0.097058
    178 H79        -5.6730    2.6720    3.2660 h1        1 MOL      0.097058
    179 H80        -4.7220    1.1370    1.9830 hn        1 MOL     -0.054972
    180 Ca1         2.5690   -0.0520    0.3640 Ca        1 MOL      1.712764
    181 O27         1.6710    0.0950    2.9100 oh        1 MOL     -0.889807
    182 H81         0.9960   -0.3910    3.3590 ho        1 MOL      0.421911
    183 H82         2.2460    0.4260    3.6040 ho        1 MOL      0.421911
    184 O28         1.3930    1.0470   -1.8170 oh        1 MOL     -0.889807
    185 H83         1.7190    0.4190   -2.4660 ho        1 MOL      0.421911
    186 H84         1.9380    1.8260   -1.9350 ho        1 MOL      0.421911
    187 O29         4.4520    0.6380    2.2460 oh        1 MOL     -0.889807
    188 H85         5.3580    0.3310    2.3260 ho        1 MOL      0.421911
    189 H86         4.2070    0.8760    3.1440 ho        1 MOL      0.421911
@<TRIPOS>BOND
     1    1    2 1   
     2    1    4 1   
     3    1    5 1   
     4    1    6 1   
     5    2    3 2   
     6    2    7 1   
     7    7    8 1   
     8    7   15 1   
     9    8    9 1   
    10    8   11 1   
    11    8   16 1   
    12    9   10 2   
    13    9   19 1   
    14   11   12 1   
    15   11   17 1   
    16   11   18 1   
    17   12   13 1   
    18   12   14 1   
    19   19   20 1   
    20   19   27 1   
    21   20   21 1   
    22   20   23 1   
    23   20   28 1   
    24   21   22 2   
    25   21   38 1   
    26   23   24 1   
    27   23   25 1   
    28   23   29 1   
    29   24   26 1   
    30   24   30 1   
    31   24   31 1   
    32   25   32 1   
    33   25   33 1   
    34   25   34 1   
    35   26   35 1   
    36   26   36 1   
    37   26   37 1   
    38   38   39 1   
    39   38   46 1   
    40   39   40 1   
    41   39   42 1   
    42   39   47 1   
    43   40   41 2   
    44   40   50 1   
    45   42   43 1   
    46   42   48 1   
    47   42   49 1   
    48   43   44 1   
    49   43   45 1   
    50   50   51 1   
    51   50   54 1   
    52   51   52 1   
    53   51   55 1   
    54   51   56 1   
    55   52   53 2   
    56   52   57 1   
    57   57   58 1   
    58   57   65 1   
    59   58   59 1   
    60   58   61 1   
    61   58   66 1   
    62   59   60 2   
    63   59   69 1   
    64   61   62 1   
    65   61   67 1   
    66   61   68 1   
    67   62   63 1   
    68   62   64 1   
    69   69   70 1   
    70   69   73 1   
    71   70   71 1   
    72   70   74 1   
    73   70   75 1   
    74   71   72 2   
    75   71   76 1   
    76   76   77 1   
    77   76   85 1   
    78   77   78 1   
    79   77   80 1   
    80   77   86 1   
    81   78   79 2   
    82   78   93 1   
    83   80   81 1   
    84   80   87 1   
    85   80   88 1   
    86   81   82 1   
    87   81   89 1   
    88   81   90 1   
    89   82   83 1   
    90   82   84 2   
    91   83   91 1   
    92   83   92 1   
    93   93   94 1   
    94   93  100 1   
    95   94   95 1   
    96   94   97 1   
    97   94  101 1   
    98   95   96 2   
    99   95  109 1   
   100   97   98 1   
   101   97   99 1   
   102   97  102 1   
   103   98  103 1   
   104   98  104 1   
   105   98  105 1   
   106   99  106 1   
   107   99  107 1   
   108   99  108 1   
   109  109  110 1   
   110  109  117 1   
   111  110  111 1   
   112  110  113 1   
   113  110  118 1   
   114  111  112 2   
   115  111  123 1   
   116  113  114 1   
   117  113  119 1   
   118  113  120 1   
   119  114  115 1   
   120  114  116 2   
   121  115  121 1   
   122  115  122 1   
   123  123  124 1   
   124  123  135 1   
   125  124  125 1   
   126  124  127 1   
   127  124  136 1   
   128  125  126 2   
   129  125  144 1   
   130  127  128 1   
   131  127  137 1   
   132  127  138 1   
   133  128  129 ar  
   134  128  130 ar  
   135  129  131 ar  
   136  129  139 1   
   137  130  132 ar  
   138  130  140 1   
   139  131  133 ar  
   140  131  141 1   
   141  132  133 ar  
   142  132  142 1   
   143  133  134 1   
   144  134  143 1   
   145  144  145 1   
   146  144  153 1   
   147  145  146 1   
   148  145  148 1   
   149  145  154 1   
   150  146  147 2   
   151  146  159 1   
   152  148  149 1   
   153  148  155 1   
   154  148  156 1   
   155  149  150 1   
   156  149  157 1   
   157  149  158 1   
   158  150  151 1   
   159  150  152 1   
   160  159  160 1   
   161  159  168 1   
   162  160  161 1   
   163  160  163 1   
   164  160  169 1   
   165  161  162 2   
   166  161  174 1   
   167  163  164 1   
   168  163  170 1   
   169  163  171 1   
   170  164  165 1   
   171  164  172 1   
   172  164  173 1   
   173  165  166 1   
   174  165  167 1   
   175  174  175 1   
   176  174  179 1   
   177  175  176 1   
   178  175  177 1   
   179  175  178 1   
   180  181  182 1   
   181  181  183 1   
   182  184  185 1   
   183  184  186 1   
   184  187  188 1   
   185  187  189 1   
@<TRIPOS>SUBSTRUCTURE
     1 MOL         1 TEMP              0 ****  ****    0 ROOT
