@<TRIPOS>MOLECULE
MOL
  189   185     1     0     0
SMALL
resp


@<TRIPOS>ATOM
      1 C1         -0.8950    2.6120    6.3590 c3        1 MOL     -0.322199
      2 C2         -1.1400    2.2040    4.8790 c         1 MOL      0.674333
      3 O1         -0.1600    2.1540    4.1220 o         1 MOL     -0.610390
      4 H1         -1.7470    3.1860    6.7220 hc        1 MOL      0.085747
      5 H2         -0.7750    1.7170    6.9680 hc        1 MOL      0.085747
      6 H3          0.0070    3.2210    6.4240 hc        1 MOL      0.085747
      7 N1         -2.4280    1.9480    4.4930 n         1 MOL     -0.592632
      8 C3         -2.6820    1.7820    3.0950 c3        1 MOL      0.156082
      9 C4         -2.7730    3.1060    2.3580 c         1 MOL      0.535273
     10 O2         -3.8110    3.7700    2.5390 o         1 MOL     -0.580176
     11 C5         -4.0310    0.9830    2.8850 c3        1 MOL     -0.408010
     12 C6         -4.3090    0.6870    1.4380 c         1 MOL      0.818317
     13 O3         -3.5010    0.9860    0.4830 o         1 MOL     -0.648272
     14 O4         -5.3990    0.1220    1.2130 o         1 MOL     -0.648272
     15 H4         -3.1890    2.0930    5.1470 hn        1 MOL      0.348344
     16 H5         -1.8360    1.2790    2.6380 h1        1 MOL     -0.052019
     17 H6         -4.8170    1.6680    3.1820 hc        1 MOL      0.118672
     18 H7         -4.1330    0.0840    3.4910 hc        1 MOL      0.118672
     19 N2         -1.7790    3.5350    1.6510 n         1 MOL     -0.235922
     20 C7         -1.6470    4.8160    0.8820 c3        1 MOL     -0.407936
     21 C8         -2.5180    4.8410   -0.4300 c         1 MOL      0.704069
     22 O5         -2.4180    5.8320   -1.1230 o         1 MOL     -0.589315
     23 C9         -0.1360    5.0380    0.5490 c3        1 MOL      0.215333
     24 C10         0.3300    6.4770    0.1220 c3        1 MOL     -0.058504
     25 C11         1.8840    6.5420    0.3160 c3        1 MOL     -0.102194
     26 C12         2.7040    5.2600   -0.0290 c3        1 MOL      0.279704
     27 N3          4.1530    5.5190    0.0470 n4        1 MOL     -0.585559
     28 H8         -0.9490    2.9540    1.6600 hn        1 MOL      0.273537
     29 H9         -2.0570    5.5730    1.5430 h1        1 MOL      0.152720
     30 H10        -0.1160    4.3660   -0.3070 hc        1 MOL      0.002791
     31 H11         0.4520    4.7170    1.4060 hc        1 MOL      0.002791
     32 H12        -0.2080    7.3010    0.6060 hc        1 MOL      0.056507
     33 H13         0.2120    6.5710   -0.9610 hc        1 MOL      0.056507
     34 H14         2.0590    6.6820    1.3850 hc        1 MOL      0.015574
     35 H15         2.2480    7.4140   -0.2320 hc        1 MOL      0.015574
     36 H16         2.5350    4.9870   -1.0680 hx        1 MOL      0.021313
     37 H17         2.3650    4.4140    0.5650 hx        1 MOL      0.021313
     38 H18         4.3670    5.7630    1.0090 hn        1 MOL      0.355364
     39 H19         4.6320    4.6770   -0.2290 hn        1 MOL      0.355364
     40 H20         4.4210    6.2150   -0.6370 hn        1 MOL      0.355364
     41 N4         -3.2780    3.8250   -0.7940 n         1 MOL     -0.351681
     42 C13        -4.1630    3.7630   -1.9670 c3        1 MOL     -0.005353
     43 C14        -5.6550    3.4630   -1.7750 c         1 MOL      0.377720
     44 O6         -6.3770    3.3280   -2.7220 o         1 MOL     -0.502857
     45 C15        -3.6060    2.5880   -2.8600 c3        1 MOL      0.086807
     46 C16        -2.1160    2.6890   -3.2080 c         1 MOL      0.616861
     47 O7         -1.7280    3.4120   -4.1590 o         1 MOL     -0.622347
     48 O8         -1.2990    2.0200   -2.4980 o         1 MOL     -0.622347
     49 H21        -3.1420    2.9720   -0.2840 hn        1 MOL      0.081888
     50 H22        -4.1900    4.6590   -2.5790 h1        1 MOL      0.084773
     51 H23        -4.1560    2.5580   -3.7990 hc        1 MOL     -0.018866
     52 H24        -3.8900    1.7340   -2.2560 hc        1 MOL     -0.018866
     53 N5         -5.9790    3.0240   -0.6250 n         1 MOL     -0.149027
     54 C17        -7.3260    2.5610   -0.3080 c3        1 MOL     -0.174647
     55 C18        -7.7710    1.1970   -0.9420 c         1 MOL      0.554865
     56 O9         -8.9610    1.0510   -1.2580 o         1 MOL     -0.591503
     57 H25        -5.3040    3.0470    0.1210 hn        1 MOL      0.178022
     58 H26        -8.0560    3.3460   -0.4830 h1        1 MOL      0.094453
     59 H27        -7.2790    2.3560    0.7650 h1        1 MOL      0.094453
     60 N6         -6.8750    0.2110   -1.0160 n         1 MOL     -0.219974
     61 C19        -7.1140   -1.0030   -1.9000 c3        1 MOL      0.039317
     62 C20        -7.1470   -2.3580   -1.1350 c         1 MOL      0.386782
     63 O10        -7.3620   -3.3870   -1.7440 o         1 MOL     -0.494325
     64 C21        -6.1030   -1.0290   -3.0420 c3        1 MOL     -0.371851
     65 C22        -4.6380   -1.0830   -2.5850 c         1 MOL      0.870717
     66 O11        -3.6860   -0.6220   -3.2250 o         1 MOL     -0.765480
     67 O12        -4.3650   -1.6800   -1.5020 o         1 MOL     -0.765480
     68 H28        -6.1190    0.1970   -0.3520 hn        1 MOL      0.113977
     69 H29        -8.1300   -0.8130   -2.2460 h1        1 MOL      0.116946
     70 H30        -6.2450   -0.1070   -3.5950 hc        1 MOL      0.110850
     71 H31        -6.1500   -1.9120   -3.6720 hc        1 MOL      0.110850
     72 N7         -6.9780   -2.3250    0.2300 n         1 MOL     -0.339700
     73 C23        -6.9700   -3.5420    1.0840 c3        1 MOL     -0.020950
     74 C24        -5.6070   -4.2680    1.0260 c         1 MOL      0.459901
     75 O13        -5.4610   -5.3430    1.6460 o         1 MOL     -0.569732
     76 H32        -6.7740   -1.4330    0.6590 hn        1 MOL      0.240460
     77 H33        -7.6950   -4.2790    0.7370 h1        1 MOL      0.079908
     78 H34        -7.2380   -3.2930    2.1170 h1        1 MOL      0.079908
     79 N8         -4.5690   -3.6620    0.4230 n         1 MOL     -0.215228
     80 C25        -3.2350   -4.3330    0.2810 c3        1 MOL     -0.154600
     81 C26        -2.0420   -3.4340    0.6000 c         1 MOL      0.739218
     82 O14        -2.1230   -2.2220    0.3560 o         1 MOL     -0.724740
     83 C27        -2.9730   -5.1190   -1.0370 c3        1 MOL      0.335156
     84 C28        -3.9310   -6.2250   -1.3780 c3        1 MOL     -0.397294
     85 O15        -3.1260   -4.1960   -2.1320 oh        1 MOL     -0.616764
     86 H35        -4.6990   -2.7240    0.0720 hn        1 MOL      0.233465
     87 H36        -3.1350   -4.9740    1.1490 h1        1 MOL      0.074577
     88 H37        -1.9210   -5.4170   -1.0450 h1        1 MOL      0.045507
     89 H38        -3.8820   -3.6860   -1.8150 ho        1 MOL      0.428280
     90 H39        -3.6760   -7.0890   -0.7600 hc        1 MOL      0.108489
     91 H40        -4.9600   -5.9870   -1.1270 hc        1 MOL      0.108489
     92 H41        -3.9970   -6.5420   -2.4210 hc        1 MOL      0.108489
     93 N9         -0.9370   -4.0940    0.9750 n         1 MOL     -0.535606
     94 C29         0.3270   -3.4940    1.3140 c3        1 MOL      0.148011
     95 C30         1.5560   -4.0140    0.4470 c         1 MOL      0.435600
     96 O16         1.6950   -5.2420    0.2880 o         1 MOL     -0.542134
     97 C31         0.6890   -3.5360    2.8460 c3        1 MOL      0.039759
     98 C32        -0.4500   -2.8510    3.7360 c3        1 MOL     -0.231744
     99 C33         2.1060   -3.0780    3.1470 c3        1 MOL     -0.217213
    100 C34        -0.6880   -1.4440    3.3420 c3        1 MOL      0.033728
    101 H42        -1.0050   -5.0800    1.1690 hn        1 MOL      0.283458
    102 H43         0.3330   -2.4220    1.0830 h1        1 MOL      0.088877
    103 H44         0.7500   -4.5690    3.1810 hc        1 MOL      0.020096
    104 H45        -0.1410   -2.7660    4.7820 hc        1 MOL      0.063076
    105 H46        -1.4390   -3.2930    3.8350 hc        1 MOL      0.063076
    106 H47         2.8060   -3.7180    2.6210 hc        1 MOL      0.043935
    107 H48         2.1380   -2.0290    2.8700 hc        1 MOL      0.043935
    108 H49         2.2460   -3.1780    4.2220 hc        1 MOL      0.043935
    109 H50         0.1280   -0.7340    3.2880 hc        1 MOL      0.039419
    110 H51        -1.2870   -1.4280    2.4310 hc        1 MOL      0.039419
    111 H52        -1.3730   -1.0100    4.0800 hc        1 MOL      0.039419
    112 N10         2.3370   -3.0140   -0.0220 n         1 MOL     -0.037518
    113 C35         3.6310   -3.1370   -0.7270 c3        1 MOL     -0.037741
    114 C36         4.7500   -2.7070    0.2130 c         1 MOL      0.386247
    115 O17         4.6110   -1.9710    1.1840 o         1 MOL     -0.348453
    116 C37         3.6300   -2.2500   -1.9420 c3        1 MOL      0.290125
    117 C38         2.7790   -2.8050   -3.0730 c3        1 MOL     -0.275592
    118 O18         3.2430   -0.9100   -1.5810 oh        1 MOL     -0.626229
    119 H53         1.9950   -2.0740    0.1230 hn        1 MOL      0.012805
    120 H54         3.7020   -4.1930   -0.9920 h1        1 MOL      0.056993
    121 H55         4.6610   -2.1670   -2.2860 h1        1 MOL      0.006789
    122 H56         2.2820   -0.9130   -1.5940 ho        1 MOL      0.417499
    123 H57         2.8170   -2.0170   -3.8170 hc        1 MOL      0.071094
    124 H58         3.1670   -3.7660   -3.4210 hc        1 MOL      0.071094
    125 H59         1.7100   -2.7940   -2.8550 hc        1 MOL      0.071094
    126 N11         5.9190   -3.0050   -0.2340 n         1 MOL     -0.394367
    127 C39         7.2160   -2.3770    0.1870 c3        1 MOL     -0.028547
    128 C40         7.2600   -0.8510    0.1100 c         1 MOL      0.317348
    129 O19         7.9470   -0.3310    1.0210 o         1 MOL     -0.515776
    130 C41         8.3980   -2.8440   -0.6080 c3        1 MOL      0.274175
    131 C42         8.6540   -4.3360   -0.5640 c3        1 MOL     -0.341580
    132 O20         8.2100   -2.5380   -1.9680 oh        1 MOL     -0.727521
    133 H60         5.9330   -3.5210   -1.1010 hn        1 MOL      0.300076
    134 H61         7.4070   -2.6790    1.2240 h1        1 MOL      0.166212
    135 H62         9.3120   -2.3680   -0.2680 h1        1 MOL      0.055860
    136 H63         8.7790   -3.1200   -2.4800 ho        1 MOL      0.445835
    137 H64         7.7600   -4.8460   -0.9210 hc        1 MOL      0.101962
    138 H65         9.5000   -4.6560   -1.1740 hc        1 MOL      0.101962
    139 H66         8.8180   -4.4940    0.4970 hc        1 MOL      0.101962
    140 N12         6.5170   -0.0650   -0.7700 n         1 MOL     -0.034851
    141 C43         6.2710    1.4480   -0.7290 c3        1 MOL     -0.072730
    142 C44         5.1540    1.8360    0.3110 c         1 MOL      0.472390
    143 O21         4.7050    2.9640    0.2930 o         1 MOL     -0.570862
    144 C45         6.2290    2.0980   -2.1540 c3        1 MOL     -0.204218
    145 C46         7.6020    2.2560   -2.7990 c3        1 MOL      0.027220
    146 C47         8.3690    0.9620   -3.1810 c3        1 MOL     -0.092985
    147 C48         9.4310    1.3490   -4.2440 c3        1 MOL     -0.052654
    148 N13        10.5530    2.0920   -3.5840 n4        1 MOL     -0.309333
    149 H67         6.1460   -0.6200   -1.5280 hn        1 MOL      0.204957
    150 H68         7.1680    1.8610   -0.2530 h1        1 MOL      0.081802
    151 H69         5.7330    3.0630   -2.0660 hc        1 MOL      0.102553
    152 H70         5.6410    1.5080   -2.8520 hc        1 MOL      0.102553
    153 H71         8.2760    2.8690   -2.2040 hc        1 MOL      0.014469
    154 H72         7.4070    2.8590   -3.6890 hc        1 MOL      0.014469
    155 H73         7.6870    0.2570   -3.6690 hc        1 MOL      0.085765
    156 H74         8.8210    0.5590   -2.2740 hc        1 MOL      0.085765
    157 H75         8.9320    2.0320   -4.9350 hx        1 MOL      0.111246
    158 H76         9.8520    0.5190   -4.8100 hx        1 MOL      0.111246
    159 H77        10.9290    1.5200   -2.8380 hn        1 MOL      0.271345
    160 H78        11.3490    2.1400   -4.1960 hn        1 MOL      0.271345
    161 H79        10.2590    3.0240   -3.3020 hn        1 MOL      0.271345
    162 N14         4.7180    0.8950    1.1440 n         1 MOL     -0.064082
    163 C49         3.7720    1.1920    2.2540 c3        1 MOL     -0.167272
    164 C50         4.1870    0.5320    3.5610 c         1 MOL      0.369745
    165 O22         3.9820    1.1660    4.5800 o         1 MOL     -0.517390
    166 C51         2.3480    0.6010    1.8410 c3        1 MOL      0.376639
    167 C52         1.8360    1.3760    0.6070 c3        1 MOL     -0.028014
    168 C53         0.5620    0.6570    0.2250 c         1 MOL      0.170907
    169 O23        -0.6000    1.0910    0.5260 o         1 MOL     -0.514632
    170 O24         0.6190   -0.4460   -0.3840 o         1 MOL     -0.514632
    171 H80         4.9930   -0.0810    1.1130 hn        1 MOL     -0.037726
    172 H81         3.4830    2.2140    2.4930 h1        1 MOL      0.124658
    173 H82         1.6210    0.7090    2.6510 hc        1 MOL      0.011010
    174 H83         2.4740   -0.4040    1.4650 hc        1 MOL      0.011010
    175 H84         2.5600    1.4500   -0.2060 hc        1 MOL      0.000751
    176 H85         1.6650    2.4120    0.8870 hc        1 MOL      0.000751
    177 N15         4.8240   -0.6360    3.6700 n         1 MOL     -0.141756
    178 C54         5.1290   -1.2960    4.8990 c3        1 MOL     -0.216616
    179 H86         6.1820   -1.5800    4.9080 h1        1 MOL      0.096430
    180 H87         4.9280   -0.6230    5.7330 h1        1 MOL      0.096430
    181 H88         4.5110   -2.1890    4.9960 h1        1 MOL      0.096430
    182 H89         5.0180   -1.1190    2.7990 hn        1 MOL      0.185585
    183 Ca1        -1.9510   -0.1880   -1.2470 Ca        1 MOL      1.769488
    184 O25        -1.0090   -2.7880   -2.1640 oh        1 MOL     -0.934039
    185 H90        -0.5880   -2.7130   -3.0190 ho        1 MOL      0.434450
    186 H91        -1.7760   -3.3300   -2.3110 ho        1 MOL      0.434450
    187 O26        -0.1940   -0.4960   -3.7210 oh        1 MOL     -0.934039
    188 H92         0.6610   -0.8420   -3.9710 ho        1 MOL      0.434450
    189 H93        -0.4420    0.0750   -4.4500 ho        1 MOL      0.434450
@<TRIPOS>BOND
     1    1    2 1   
     2    1    4 1   
     3    1    5 1   
     4    1    6 1   
     5    2    3 2   
     6    2    7 1   
     7    7    8 1   
     8    7   15 1   
     9    8    9 1   
    10    8   11 1   
    11    8   16 1   
    12    9   10 2   
    13    9   19 1   
    14   11   12 1   
    15   11   17 1   
    16   11   18 1   
    17   12   13 1   
    18   12   14 1   
    19   19   20 1   
    20   19   28 1   
    21   20   21 1   
    22   20   23 1   
    23   20   29 1   
    24   21   22 2   
    25   21   41 1   
    26   23   24 1   
    27   23   30 1   
    28   23   31 1   
    29   24   25 1   
    30   24   32 1   
    31   24   33 1   
    32   25   26 1   
    33   25   34 1   
    34   25   35 1   
    35   26   27 1   
    36   26   36 1   
    37   26   37 1   
    38   27   38 1   
    39   27   39 1   
    40   27   40 1   
    41   41   42 1   
    42   41   49 1   
    43   42   43 1   
    44   42   45 1   
    45   42   50 1   
    46   43   44 2   
    47   43   53 1   
    48   45   46 1   
    49   45   51 1   
    50   45   52 1   
    51   46   47 1   
    52   46   48 1   
    53   53   54 1   
    54   53   57 1   
    55   54   55 1   
    56   54   58 1   
    57   54   59 1   
    58   55   56 2   
    59   55   60 1   
    60   60   61 1   
    61   60   68 1   
    62   61   62 1   
    63   61   64 1   
    64   61   69 1   
    65   62   63 2   
    66   62   72 1   
    67   64   65 1   
    68   64   70 1   
    69   64   71 1   
    70   65   66 1   
    71   65   67 1   
    72   72   73 1   
    73   72   76 1   
    74   73   74 1   
    75   73   77 1   
    76   73   78 1   
    77   74   75 2   
    78   74   79 1   
    79   79   80 1   
    80   79   86 1   
    81   80   81 1   
    82   80   83 1   
    83   80   87 1   
    84   81   82 2   
    85   81   93 1   
    86   83   84 1   
    87   83   85 1   
    88   83   88 1   
    89   84   90 1   
    90   84   91 1   
    91   84   92 1   
    92   85   89 1   
    93   93   94 1   
    94   93  101 1   
    95   94   95 1   
    96   94   97 1   
    97   94  102 1   
    98   95   96 2   
    99   95  112 1   
   100   97   98 1   
   101   97   99 1   
   102   97  103 1   
   103   98  100 1   
   104   98  104 1   
   105   98  105 1   
   106   99  106 1   
   107   99  107 1   
   108   99  108 1   
   109  100  109 1   
   110  100  110 1   
   111  100  111 1   
   112  112  113 1   
   113  112  119 1   
   114  113  114 1   
   115  113  116 1   
   116  113  120 1   
   117  114  115 2   
   118  114  126 1   
   119  116  117 1   
   120  116  118 1   
   121  116  121 1   
   122  117  123 1   
   123  117  124 1   
   124  117  125 1   
   125  118  122 1   
   126  126  127 1   
   127  126  133 1   
   128  127  128 1   
   129  127  130 1   
   130  127  134 1   
   131  128  129 2   
   132  128  140 1   
   133  130  131 1   
   134  130  132 1   
   135  130  135 1   
   136  131  137 1   
   137  131  138 1   
   138  131  139 1   
   139  132  136 1   
   140  140  141 1   
   141  140  149 1   
   142  141  142 1   
   143  141  144 1   
   144  141  150 1   
   145  142  143 2   
   146  142  162 1   
   147  144  145 1   
   148  144  151 1   
   149  144  152 1   
   150  145  146 1   
   151  145  153 1   
   152  145  154 1   
   153  146  147 1   
   154  146  155 1   
   155  146  156 1   
   156  147  148 1   
   157  147  157 1   
   158  147  158 1   
   159  148  159 1   
   160  148  160 1   
   161  148  161 1   
   162  162  163 1   
   163  162  171 1   
   164  163  164 1   
   165  163  166 1   
   166  163  172 1   
   167  164  165 2   
   168  164  177 1   
   169  166  167 1   
   170  166  173 1   
   171  166  174 1   
   172  167  168 1   
   173  167  175 1   
   174  167  176 1   
   175  168  169 1   
   176  168  170 1   
   177  177  178 1   
   178  177  182 1   
   179  178  179 1   
   180  178  180 1   
   181  178  181 1   
   182  184  185 1   
   183  184  186 1   
   184  187  188 1   
   185  187  189 1   
@<TRIPOS>SUBSTRUCTURE
     1 MOL         1 TEMP              0 ****  ****    0 ROOT
