@<TRIPOS>MOLECULE
MOL
  189   185     1     0     0
SMALL
resp


@<TRIPOS>ATOM
      1 C1          0.9770   -3.9130    6.0220 c3        1 MOL     -0.495796
      2 C2          1.3480   -3.4280    4.6160 c         1 MOL      0.725305
      3 O1          1.0950   -2.2720    4.2220 o         1 MOL     -0.616574
      4 H1          1.1020   -3.0960    6.7330 hc        1 MOL      0.130645
      5 H2         -0.0620   -4.2460    6.0300 hc        1 MOL      0.130645
      6 H3          1.6260   -4.7420    6.3040 hc        1 MOL      0.130645
      7 N1          1.9690   -4.2850    3.8130 n         1 MOL     -0.571383
      8 C3          2.5150   -3.9070    2.4770 c3        1 MOL      0.313804
      9 C4          2.3060   -5.0830    1.4900 c         1 MOL      0.431787
     10 O2          2.2380   -6.2540    1.8590 o         1 MOL     -0.580990
     11 C5          4.0200   -3.5600    2.6700 c3        1 MOL     -0.261340
     12 C6          4.6090   -2.7950    1.4410 c         1 MOL      0.641470
     13 O3          5.8240   -2.8790    1.3290 o         1 MOL     -0.642267
     14 O4          3.8800   -2.3350    0.5760 o         1 MOL     -0.642267
     15 H4          2.2200   -5.1700    4.2280 hn        1 MOL      0.291810
     16 H5          1.9520   -3.0150    2.2130 h1        1 MOL     -0.031623
     17 H6          4.5920   -4.4630    2.8720 hc        1 MOL      0.043344
     18 H7          4.0580   -2.9330    3.5620 hc        1 MOL      0.043344
     19 N2          2.2350   -4.6870    0.2370 n         1 MOL     -0.155832
     20 C7          2.0350   -5.5760   -0.9130 c3        1 MOL     -0.044655
     21 C8          2.9390   -5.1490   -2.0500 c         1 MOL      0.452084
     22 O5          2.8800   -5.8540   -3.1270 o         1 MOL     -0.560990
     23 C9          0.4750   -5.7730   -1.1590 c3        1 MOL      0.177062
     24 C10         0.2630   -7.2190   -1.6130 c3        1 MOL      0.008626
     25 C11        -0.1320   -4.7480   -2.1900 c3        1 MOL     -0.458897
     26 C12        -1.3030   -7.4740   -1.8550 c3        1 MOL     -0.104746
     27 H8          2.0320   -3.7110    0.1090 hn        1 MOL      0.128400
     28 H9          2.5020   -6.5360   -0.7030 h1        1 MOL      0.074972
     29 H10        -0.0380   -5.7490   -0.1920 hc        1 MOL      0.029586
     30 H11         0.6690   -7.8810   -0.8540 hc        1 MOL     -0.010182
     31 H12         0.7810   -7.3700   -2.5690 hc        1 MOL     -0.010182
     32 H13         0.1060   -5.1480   -3.1770 hc        1 MOL      0.137737
     33 H14        -1.2090   -4.6500   -2.0050 hc        1 MOL      0.137737
     34 H15         0.3240   -3.7600   -2.1400 hc        1 MOL      0.137737
     35 H16        -1.4520   -8.5410   -2.0000 hc        1 MOL      0.012269
     36 H17        -1.9570   -7.2050   -1.0280 hc        1 MOL      0.012269
     37 H18        -1.7270   -6.9210   -2.6930 hc        1 MOL      0.012269
     38 N3          3.6670   -4.0540   -2.0520 n         1 MOL     -0.382072
     39 C13         4.2240   -3.4740   -3.2930 c3        1 MOL      0.025916
     40 C14         5.4890   -2.5590   -3.0900 c         1 MOL      0.612687
     41 O6          6.0370   -2.1380   -4.0990 o         1 MOL     -0.571307
     42 C15         3.1770   -2.7840   -4.1180 c3        1 MOL     -0.154198
     43 C16         2.4550   -1.6710   -3.3410 c         1 MOL      0.770222
     44 O7          2.8230   -1.3490   -2.1840 o         1 MOL     -0.730139
     45 O8          1.6130   -0.9070   -3.8870 o         1 MOL     -0.730139
     46 H19         3.5750   -3.5080   -1.2090 hn        1 MOL      0.217656
     47 H20         4.6370   -4.3440   -3.8080 h1        1 MOL      0.067789
     48 H21         2.3480   -3.4470   -4.3210 hc        1 MOL      0.041245
     49 H22         3.5300   -2.4270   -5.0800 hc        1 MOL      0.041245
     50 N4          5.9410   -2.2980   -1.8180 n         1 MOL     -0.544443
     51 C17         7.3340   -1.8610   -1.5830 c3        1 MOL     -0.013243
     52 C18         7.6590   -0.3600   -1.8120 c         1 MOL      0.469543
     53 O9          8.7990    0.0370   -1.5340 o         1 MOL     -0.597880
     54 H23         5.4290   -2.6440   -1.0110 hn        1 MOL      0.329935
     55 H24         8.0310   -2.3650   -2.2440 h1        1 MOL      0.073497
     56 H25         7.6320   -2.0320   -0.5420 h1        1 MOL      0.073497
     57 N5          6.6980    0.4680   -2.2450 n         1 MOL     -0.312715
     58 C19         6.9050    1.8910   -2.4830 c3        1 MOL      0.229610
     59 C20         7.3890    2.6220   -1.2830 c         1 MOL      0.361651
     60 O10         8.1390    3.6020   -1.4380 o         1 MOL     -0.580933
     61 C21         5.6330    2.5650   -2.9690 c3        1 MOL     -0.457952
     62 C22         4.2940    2.2820   -2.2560 c         1 MOL      0.823522
     63 O11         4.2810    1.6140   -1.2200 o         1 MOL     -0.702623
     64 O12         3.2000    2.6430   -2.7550 o         1 MOL     -0.702623
     65 H26         5.8020    0.0370   -2.4180 hn        1 MOL      0.257474
     66 H27         7.6290    1.9820   -3.2940 h1        1 MOL      0.032986
     67 H28         5.4790    2.2840   -4.0210 hc        1 MOL      0.109237
     68 H29         5.8020    3.6370   -2.9660 hc        1 MOL      0.109237
     69 N6          6.7980    2.3060   -0.1440 n         1 MOL     -0.095274
     70 C23         6.9700    2.8470    1.2370 c3        1 MOL     -0.137019
     71 C24         5.7420    3.7110    1.6640 c         1 MOL      0.551073
     72 O13         5.9310    4.5040    2.5740 o         1 MOL     -0.599514
     73 H30         6.3440    1.4040   -0.2120 hn        1 MOL      0.226877
     74 H31         7.9190    3.3850    1.2610 h1        1 MOL      0.080690
     75 H32         7.1050    1.9980    1.9000 h1        1 MOL      0.080690
     76 N7          4.5470    3.4970    1.1370 n         1 MOL     -0.298694
     77 C25         3.3810    4.2680    1.6130 c3        1 MOL      0.045365
     78 C26         2.1810    3.2570    1.8400 c         1 MOL      0.296775
     79 O14         2.1090    2.1850    1.0930 o         1 MOL     -0.407805
     80 C27         2.9910    5.5060    0.7540 c3        1 MOL      0.093256
     81 C28         4.0950    6.6130    0.7070 c3        1 MOL     -0.351587
     82 C29         3.6900    7.8950   -0.0730 c         1 MOL      0.628681
     83 N8          3.8960    7.8550   -1.3830 n         1 MOL     -0.766364
     84 O15         2.9860    8.7450    0.3850 o         1 MOL     -0.553638
     85 H33         4.5290    2.8370    0.3730 hn        1 MOL      0.136032
     86 H34         3.4960    4.8110    2.5490 h1        1 MOL      0.042435
     87 H35         2.0970    5.9800    1.1480 hc        1 MOL      0.052080
     88 H36         2.7190    5.1910   -0.2560 hc        1 MOL      0.052080
     89 H37         5.0380    6.2340    0.3010 hc        1 MOL      0.107756
     90 H38         4.2420    7.0220    1.7110 hc        1 MOL      0.107756
     91 H39         4.5270    7.1440   -1.7310 hn        1 MOL      0.355669
     92 H40         3.5290    8.5890   -1.9630 hn        1 MOL      0.355669
     93 N9          1.0770    3.5810    2.5490 n         1 MOL     -0.308612
     94 C30        -0.1320    2.7620    2.6900 c3        1 MOL      0.025883
     95 C31        -1.1300    3.0860    1.6140 c         1 MOL      0.362387
     96 O16        -1.3220    4.3150    1.3990 o         1 MOL     -0.567937
     97 C32        -0.8590    2.8580    4.0710 c3        1 MOL      0.330307
     98 C33        -2.0860    1.9420    4.2220 c3        1 MOL     -0.242734
     99 C34         0.1120    2.4210    5.1820 c3        1 MOL     -0.242734
    100 H41         1.1360    4.4960    2.9760 hn        1 MOL      0.239769
    101 H42         0.2150    1.7330    2.5700 h1        1 MOL      0.100021
    102 H43        -1.2130    3.8660    4.2920 hc        1 MOL     -0.045360
    103 H44        -2.9430    2.2920    3.6500 hc        1 MOL      0.037741
    104 H45        -1.7850    0.9120    3.9970 hc        1 MOL      0.037741
    105 H46        -2.3930    1.9760    5.2670 hc        1 MOL      0.037741
    106 H47         1.0470    2.9360    4.9510 hc        1 MOL      0.037741
    107 H48        -0.2790    2.6500    6.1750 hc        1 MOL      0.037741
    108 H49         0.3740    1.3810    5.0160 hc        1 MOL      0.037741
    109 N10        -1.7480    2.1050    0.9310 n         1 MOL     -0.113609
    110 C35        -2.9640    2.3590    0.1340 c3        1 MOL      0.239500
    111 C36        -4.3060    1.9250    0.8230 c         1 MOL      0.208167
    112 O17        -4.2840    1.2820    1.8400 o         1 MOL     -0.328733
    113 C37        -2.7940    1.5860   -1.1830 c3        1 MOL     -0.367405
    114 C38        -3.9800    1.6040   -2.1170 c         1 MOL      0.657288
    115 N11        -4.5190    2.7450   -2.5250 n         1 MOL     -0.683874
    116 O18        -4.5350    0.5900   -2.4760 o         1 MOL     -0.556964
    117 H50        -1.3590    1.1670    0.9130 hn        1 MOL      0.056020
    118 H51        -3.0550    3.4410    0.0390 h1        1 MOL      0.018602
    119 H52        -2.4460    0.5650   -1.0730 hc        1 MOL      0.150827
    120 H53        -1.8840    1.9830   -1.6340 hc        1 MOL      0.150827
    121 H54        -4.0840    3.6220   -2.2920 hn        1 MOL      0.303784
    122 H55        -5.3970    2.6580   -3.0230 hn        1 MOL      0.303784
    123 N12        -5.4900    2.3230    0.3470 n         1 MOL     -0.244299
    124 C39        -6.8120    2.0340    0.8820 c3        1 MOL      0.225674
    125 C40        -7.1080    0.4560    0.8720 c         1 MOL      0.319055
    126 O19        -7.8530    0.0240    1.6940 o         1 MOL     -0.535782
    127 C41        -7.9170    2.8520    0.2220 c3        1 MOL     -0.181225
    128 C42        -7.7890    2.9100   -1.3560 ca        1 MOL     -0.005757
    129 C43        -7.2780    4.0790   -1.8910 ca        1 MOL     -0.048588
    130 C44        -8.4240    1.9980   -2.2290 ca        1 MOL     -0.048588
    131 C45        -7.0800    4.2130   -3.3010 ca        1 MOL     -0.390282
    132 C46        -8.2490    2.1320   -3.6390 ca        1 MOL     -0.390282
    133 C47        -7.6380    3.2610   -4.2000 ca        1 MOL      0.473002
    134 O20        -7.7010    3.5460   -5.5480 oh        1 MOL     -0.574460
    135 H56        -5.5350    3.0510   -0.3580 hn        1 MOL      0.141610
    136 H57        -6.8750    2.2460    1.9510 h1        1 MOL      0.010401
    137 H58        -7.8360    3.8670    0.6160 hc        1 MOL      0.060737
    138 H59        -8.8780    2.4500    0.5260 hc        1 MOL      0.060737
    139 H60        -6.9290    4.8480   -1.2060 ha        1 MOL      0.107894
    140 H61        -8.8660    1.0820   -1.8760 ha        1 MOL      0.107894
    141 H62        -6.7380    5.1510   -3.7110 ha        1 MOL      0.162014
    142 H63        -8.7310    1.3490   -4.2110 ha        1 MOL      0.162014
    143 H64        -8.0700    2.7640   -5.9790 ho        1 MOL      0.408157
    144 N13        -6.4740   -0.2200   -0.1060 n         1 MOL      0.178873
    145 C48        -6.6310   -1.7090   -0.1510 c3        1 MOL     -0.252021
    146 C49        -5.6680   -2.3980    0.7850 c         1 MOL      0.319778
    147 O21        -5.8630   -3.5570    1.1300 o         1 MOL     -0.478153
    148 C50        -6.4310   -2.2740   -1.6200 c3        1 MOL      0.422179
    149 C51        -7.3340   -1.5480   -2.6450 c3        1 MOL     -0.402162
    150 C52        -8.8570   -1.8790   -2.3090 c         1 MOL      0.774875
    151 O22        -9.3560   -2.9450   -2.6480 o         1 MOL     -0.726720
    152 O23        -9.5170   -1.0830   -1.6620 o         1 MOL     -0.726720
    153 H65        -5.9490    0.2520   -0.8310 hn        1 MOL      0.060787
    154 H66        -7.6870   -1.9180    0.0070 h1        1 MOL      0.170326
    155 H67        -6.7040   -3.3260   -1.5890 hc        1 MOL     -0.081274
    156 H68        -5.3790   -2.2280   -1.8910 hc        1 MOL     -0.081274
    157 H69        -7.0600   -1.9490   -3.6220 hc        1 MOL      0.058033
    158 H70        -7.2270   -0.4650   -2.6440 hc        1 MOL      0.058033
    159 N14        -4.5660   -1.6920    1.2370 n         1 MOL     -0.122969
    160 C53        -3.6810   -2.0860    2.3760 c3        1 MOL     -0.007407
    161 C54        -4.3110   -1.6600    3.6530 c         1 MOL      0.371913
    162 O24        -4.3310   -2.5170    4.5930 o         1 MOL     -0.563862
    163 C55        -2.2280   -1.5470    2.2210 c3        1 MOL     -0.071826
    164 C56        -1.5960   -2.3180    1.0300 c3        1 MOL      0.068968
    165 C57        -0.3090   -1.6430    0.4710 c         1 MOL      0.719658
    166 O25         0.7070   -2.2990    0.2590 o         1 MOL     -0.708211
    167 O26        -0.3180   -0.4100    0.2380 o         1 MOL     -0.708211
    168 H71        -4.4120   -0.7510    0.8910 hn        1 MOL      0.025126
    169 H72        -3.6400   -3.1690    2.3540 h1        1 MOL      0.087399
    170 H73        -1.6060   -1.7970    3.0860 hc        1 MOL      0.061869
    171 H74        -2.2030   -0.4640    2.1080 hc        1 MOL      0.061869
    172 H75        -2.2710   -2.2960    0.1680 hc        1 MOL     -0.021144
    173 H76        -1.4650   -3.3750    1.2900 hc        1 MOL     -0.021144
    174 N15        -5.1220   -0.5830    3.6910 n         1 MOL     -0.049095
    175 C58        -5.6580   -0.0430    4.9690 c3        1 MOL     -0.146179
    176 H77        -5.2870    0.9710    5.1190 h1        1 MOL      0.061717
    177 H78        -6.7470   -0.0280    4.9300 h1        1 MOL      0.061717
    178 H79        -5.3330   -0.6750    5.7960 h1        1 MOL      0.061717
    179 H80        -5.0160    0.0470    2.9080 hn        1 MOL      0.085787
    180 Ca1         2.5080   -0.1650    0.0200 Ca        1 MOL      1.695287
    181 O27         2.2880   -0.3900    2.6600 oh        1 MOL     -0.893435
    182 O28         1.1760    1.2570   -1.8380 oh        1 MOL     -0.893435
    183 H81         1.8930   -1.1450    3.0960 ho        1 MOL      0.420282
    184 H82         1.8890    1.7910   -2.1890 ho        1 MOL      0.420282
    185 H83         2.7660    0.0740    3.3400 ho        1 MOL      0.420282
    186 H84         0.7510    0.8770   -2.6080 ho        1 MOL      0.420282
    187 O29         4.9230    0.2700    1.5140 oh        1 MOL     -0.893435
    188 H85         4.6350    0.5720    2.3790 ho        1 MOL      0.420282
    189 H86         5.2080   -0.6260    1.6420 ho        1 MOL      0.420282
@<TRIPOS>BOND
     1    1    2 1   
     2    1    4 1   
     3    1    5 1   
     4    1    6 1   
     5    2    3 2   
     6    2    7 1   
     7    7    8 1   
     8    7   15 1   
     9    8    9 1   
    10    8   11 1   
    11    8   16 1   
    12    9   10 2   
    13    9   19 1   
    14   11   12 1   
    15   11   17 1   
    16   11   18 1   
    17   12   13 1   
    18   12   14 1   
    19   19   20 1   
    20   19   27 1   
    21   20   21 1   
    22   20   23 1   
    23   20   28 1   
    24   21   22 2   
    25   21   38 1   
    26   23   24 1   
    27   23   25 1   
    28   23   29 1   
    29   24   26 1   
    30   24   30 1   
    31   24   31 1   
    32   25   32 1   
    33   25   33 1   
    34   25   34 1   
    35   26   35 1   
    36   26   36 1   
    37   26   37 1   
    38   38   39 1   
    39   38   46 1   
    40   39   40 1   
    41   39   42 1   
    42   39   47 1   
    43   40   41 2   
    44   40   50 1   
    45   42   43 1   
    46   42   48 1   
    47   42   49 1   
    48   43   44 1   
    49   43   45 1   
    50   50   51 1   
    51   50   54 1   
    52   51   52 1   
    53   51   55 1   
    54   51   56 1   
    55   52   53 2   
    56   52   57 1   
    57   57   58 1   
    58   57   65 1   
    59   58   59 1   
    60   58   61 1   
    61   58   66 1   
    62   59   60 2   
    63   59   69 1   
    64   61   62 1   
    65   61   67 1   
    66   61   68 1   
    67   62   63 1   
    68   62   64 1   
    69   69   70 1   
    70   69   73 1   
    71   70   71 1   
    72   70   74 1   
    73   70   75 1   
    74   71   72 2   
    75   71   76 1   
    76   76   77 1   
    77   76   85 1   
    78   77   78 1   
    79   77   80 1   
    80   77   86 1   
    81   78   79 2   
    82   78   93 1   
    83   80   81 1   
    84   80   87 1   
    85   80   88 1   
    86   81   82 1   
    87   81   89 1   
    88   81   90 1   
    89   82   83 1   
    90   82   84 2   
    91   83   91 1   
    92   83   92 1   
    93   93   94 1   
    94   93  100 1   
    95   94   95 1   
    96   94   97 1   
    97   94  101 1   
    98   95   96 2   
    99   95  109 1   
   100   97   98 1   
   101   97   99 1   
   102   97  102 1   
   103   98  103 1   
   104   98  104 1   
   105   98  105 1   
   106   99  106 1   
   107   99  107 1   
   108   99  108 1   
   109  109  110 1   
   110  109  117 1   
   111  110  111 1   
   112  110  113 1   
   113  110  118 1   
   114  111  112 2   
   115  111  123 1   
   116  113  114 1   
   117  113  119 1   
   118  113  120 1   
   119  114  115 1   
   120  114  116 2   
   121  115  121 1   
   122  115  122 1   
   123  123  124 1   
   124  123  135 1   
   125  124  125 1   
   126  124  127 1   
   127  124  136 1   
   128  125  126 2   
   129  125  144 1   
   130  127  128 1   
   131  127  137 1   
   132  127  138 1   
   133  128  129 ar  
   134  128  130 ar  
   135  129  131 ar  
   136  129  139 1   
   137  130  132 ar  
   138  130  140 1   
   139  131  133 ar  
   140  131  141 1   
   141  132  133 ar  
   142  132  142 1   
   143  133  134 1   
   144  134  143 1   
   145  144  145 1   
   146  144  153 1   
   147  145  146 1   
   148  145  148 1   
   149  145  154 1   
   150  146  147 2   
   151  146  159 1   
   152  148  149 1   
   153  148  155 1   
   154  148  156 1   
   155  149  150 1   
   156  149  157 1   
   157  149  158 1   
   158  150  151 1   
   159  150  152 1   
   160  159  160 1   
   161  159  168 1   
   162  160  161 1   
   163  160  163 1   
   164  160  169 1   
   165  161  162 2   
   166  161  174 1   
   167  163  164 1   
   168  163  170 1   
   169  163  171 1   
   170  164  165 1   
   171  164  172 1   
   172  164  173 1   
   173  165  166 1   
   174  165  167 1   
   175  174  175 1   
   176  174  179 1   
   177  175  176 1   
   178  175  177 1   
   179  175  178 1   
   180  181  183 1   
   181  181  185 1   
   182  182  184 1   
   183  182  186 1   
   184  187  188 1   
   185  187  189 1   
@<TRIPOS>SUBSTRUCTURE
     1 MOL         1 TEMP              0 ****  ****    0 ROOT
