@<TRIPOS>MOLECULE
MOL
  182   178     1     0     0
SMALL
resp


@<TRIPOS>ATOM
      1 C1         -1.2520   -2.9080    5.8700 c3        1 MOL     -0.273919
      2 C2         -0.7150   -2.6470    4.4860 c         1 MOL      0.718117
      3 O1         -1.4580   -2.8050    3.4930 o         1 MOL     -0.609507
      4 H1         -1.3850   -3.9810    6.0110 hc        1 MOL      0.072105
      5 H2         -0.5480   -2.5300    6.6120 hc        1 MOL      0.072105
      6 H3         -2.2120   -2.4050    5.9900 hc        1 MOL      0.072105
      7 N1          0.5820   -2.3510    4.2910 n         1 MOL     -0.644942
      8 C3          1.2030   -1.9950    3.0420 c3        1 MOL      0.170789
      9 C4          1.5850   -3.2550    2.2900 c         1 MOL      0.571663
     10 O2          2.5130   -3.9460    2.7710 o         1 MOL     -0.547765
     11 C5          2.3670   -1.0750    3.3810 c3        1 MOL     -0.103017
     12 C6          3.0460   -0.6680    2.0960 c         1 MOL      0.702664
     13 O3          2.6160   -1.0240    0.9510 o         1 MOL     -0.732763
     14 O4          4.0910    0.0990    2.2070 o         1 MOL     -0.732763
     15 H4          1.1190   -2.1820    5.1290 hn        1 MOL      0.331547
     16 H5          0.5230   -1.4040    2.4280 h1        1 MOL      0.018883
     17 H6          2.9880   -1.7140    4.0000 hc        1 MOL      0.036286
     18 H7          2.0820   -0.2410    4.0200 hc        1 MOL      0.036286
     19 N2          0.7730   -3.6170    1.2740 n         1 MOL     -0.218636
     20 C7          0.5660   -4.9300    0.6540 c3        1 MOL     -0.069894
     21 C8          1.9020   -5.3810    0.0370 c         1 MOL      0.449439
     22 O5          2.0830   -6.5460   -0.2670 o         1 MOL     -0.572715
     23 C9         -0.5330   -4.8450   -0.3880 c3        1 MOL      0.045203
     24 C10        -1.2600   -6.2290   -0.5010 c3        1 MOL     -0.329001
     25 C11        -2.4220   -6.0190   -1.4710 c3        1 MOL     -0.162952
     26 C12        -2.1320   -6.1840   -3.0280 c3        1 MOL     -0.036235
     27 N3         -1.7500   -7.5870   -3.2960 n4        1 MOL     -0.340584
     28 H8          0.2070   -2.8310    0.9570 hn        1 MOL      0.102449
     29 H9          0.3110   -5.6390    1.4480 h1        1 MOL      0.097237
     30 H10        -0.0940   -4.4050   -1.2760 hc        1 MOL      0.079614
     31 H11        -1.3450   -4.1930   -0.0530 hc        1 MOL      0.079614
     32 H12        -1.6370   -6.4140    0.5000 hc        1 MOL      0.133109
     33 H13        -0.5340   -7.0060   -0.7520 hc        1 MOL      0.133109
     34 H14        -2.7900   -5.0080   -1.3420 hc        1 MOL      0.126068
     35 H15        -3.1870   -6.7770   -1.3040 hc        1 MOL      0.126068
     36 H16        -1.2850   -5.5380   -3.2620 hx        1 MOL      0.095663
     37 H17        -3.0190   -5.9110   -3.5870 hx        1 MOL      0.095663
     38 H18        -0.8660   -7.8820   -2.8930 hn        1 MOL      0.326927
     39 H19        -2.5090   -8.2060   -3.0480 hn        1 MOL      0.326927
     40 H20        -1.5470   -7.7240   -4.2740 hn        1 MOL      0.326927
     41 N4          2.8880   -4.4910   -0.1130 n         1 MOL     -0.145303
     42 C13         4.1960   -4.8490   -0.6790 c3        1 MOL      0.002773
     43 C14         5.3370   -4.0570    0.0540 c         1 MOL      0.332217
     44 O6          6.5280   -4.1180   -0.2540 o         1 MOL     -0.498594
     45 C15         4.2810   -4.3420   -2.1200 c3        1 MOL     -0.355609
     46 C16         3.7670   -2.9640   -2.4830 c         1 MOL      0.822082
     47 O7          3.3410   -2.2070   -1.6010 o         1 MOL     -0.758050
     48 O8          3.6290   -2.6470   -3.7010 o         1 MOL     -0.758050
     49 H21         2.7500   -3.4980    0.0420 hn        1 MOL      0.112010
     50 H22         4.4250   -5.9110   -0.5970 h1        1 MOL      0.129386
     51 H23         3.6960   -5.0530   -2.7040 hc        1 MOL      0.100170
     52 H24         5.2860   -4.4490   -2.5320 hc        1 MOL      0.100170
     53 N5          4.9620   -3.1940    1.0410 n         1 MOL     -0.068318
     54 C17         5.8770   -2.2500    1.7120 c3        1 MOL      0.019981
     55 C18         6.4640   -1.1480    0.8660 c         1 MOL      0.498197
     56 O9          7.6360   -0.8410    1.0510 o         1 MOL     -0.576204
     57 H25         3.9990   -3.2180    1.3550 hn        1 MOL      0.018619
     58 H26         6.6990   -2.8580    2.0770 h1        1 MOL      0.044814
     59 H27         5.4250   -1.8510    2.6200 h1        1 MOL      0.044814
     60 N6          5.7510   -0.6160   -0.0890 n         1 MOL     -0.157235
     61 C19         6.2640    0.5000   -0.9460 c3        1 MOL     -0.071437
     62 C20         6.2030    1.8530   -0.2600 c         1 MOL      0.245292
     63 O10         6.6650    2.9250   -0.6930 o         1 MOL     -0.484226
     64 C21         5.6570    0.3930   -2.3800 c3        1 MOL     -0.267331
     65 C22         4.3350    1.1210   -2.5610 c         1 MOL      0.550852
     66 N7          4.2060    1.8510   -3.6340 n         1 MOL     -0.518206
     67 O11         3.5300    1.1970   -1.6620 o         1 MOL     -0.545908
     68 H28         4.7760   -0.8460   -0.1770 hn        1 MOL      0.159469
     69 H29         7.3120    0.2300   -1.0910 h1        1 MOL      0.139189
     70 H30         5.5250   -0.6450   -2.6860 hc        1 MOL      0.127262
     71 H31         6.3850    0.7910   -3.0890 hc        1 MOL      0.127262
     72 H32         4.8910    1.7680   -4.3700 hn        1 MOL      0.285107
     73 H33         3.3140    2.2280   -3.9170 hn        1 MOL      0.285107
     74 N8          5.6360    1.8600    0.8880 n         1 MOL     -0.012667
     75 C23         5.5390    2.9970    1.7380 c3        1 MOL     -0.186808
     76 C24         4.1830    3.6580    1.7580 c         1 MOL      0.521980
     77 O12         3.9960    4.7550    2.3750 o         1 MOL     -0.569076
     78 H34         5.3010    0.9900    1.2680 hn        1 MOL      0.242292
     79 H35         6.2780    3.7720    1.4890 h1        1 MOL      0.108451
     80 H36         5.8410    2.6480    2.7230 h1        1 MOL      0.108451
     81 N9          3.2010    3.1170    0.9800 n         1 MOL     -0.214836
     82 C25         1.8450    3.6830    0.8370 c3        1 MOL      0.046820
     83 C26         0.7770    2.5860    0.9590 c         1 MOL      0.317263
     84 O13         0.9490    1.4450    0.5380 o         1 MOL     -0.456365
     85 C27         1.7080    4.4230   -0.5100 c3        1 MOL      0.134282
     86 C28         2.8980    5.3890   -0.7490 ca        1 MOL     -0.188727
     87 C29         3.9950    4.9060   -1.5070 ca        1 MOL     -0.096229
     88 C30         2.9100    6.7560   -0.1460 ca        1 MOL     -0.096229
     89 C31         5.0810    5.7270   -1.6880 ca        1 MOL     -0.272964
     90 C32         4.0710    7.5230   -0.3650 ca        1 MOL     -0.272964
     91 C33         5.1540    7.0150   -1.0540 ca        1 MOL      0.439796
     92 O14         6.2120    7.8030   -1.2940 oh        1 MOL     -0.530167
     93 H37         3.3530    2.2490    0.4910 hn        1 MOL      0.141644
     94 H38         1.5510    4.4110    1.5910 h1        1 MOL      0.073649
     95 H39         0.7660    4.9730   -0.4590 hc        1 MOL     -0.013492
     96 H40         1.6710    3.7510   -1.3630 hc        1 MOL     -0.013492
     97 H41         3.9470    3.9350   -1.9780 ha        1 MOL      0.132109
     98 H42         2.0510    7.1750    0.3510 ha        1 MOL      0.132109
     99 H43         5.8940    5.2860   -2.2490 ha        1 MOL      0.126597
    100 H44         4.1130    8.5580   -0.0550 ha        1 MOL      0.126597
    101 H45         6.2590    8.5400   -0.6900 ho        1 MOL      0.375552
    102 N10        -0.4020    2.9700    1.4470 n         1 MOL     -0.328351
    103 C34        -1.6680    2.3100    1.2370 c3        1 MOL     -0.152519
    104 C35        -2.6630    3.2070    0.4580 c         1 MOL      0.458660
    105 O15        -2.8840    4.3850    0.7600 o         1 MOL     -0.532756
    106 C36        -2.3770    1.8070    2.5690 c3        1 MOL      0.115967
    107 C37        -2.5560    2.9490    3.5720 c3        1 MOL     -0.089347
    108 C38        -1.5230    0.6870    3.1160 c3        1 MOL     -0.886927
    109 C39        -2.8920    2.5650    5.0090 c3        1 MOL     -0.244092
    110 H46        -0.3660    3.9200    1.7900 hn        1 MOL      0.276793
    111 H47        -1.3620    1.4410    0.6570 h1        1 MOL      0.232775
    112 H48        -3.3750    1.3990    2.4070 hc        1 MOL      0.052174
    113 H49        -3.4370    3.5140    3.2650 hc        1 MOL      0.068872
    114 H50        -1.7120    3.6390    3.6060 hc        1 MOL      0.068872
    115 H51        -2.0120    0.2350    3.9790 hc        1 MOL      0.250308
    116 H52        -1.2850   -0.0790    2.3780 hc        1 MOL      0.250308
    117 H53        -0.6050    1.1210    3.5140 hc        1 MOL      0.250308
    118 H54        -3.6800    1.8230    5.0860 hc        1 MOL      0.066691
    119 H55        -2.0680    2.1280    5.5760 hc        1 MOL      0.066691
    120 H56        -3.0940    3.4930    5.5440 hc        1 MOL      0.066691
    121 N11        -3.2940    2.6220   -0.5400 n         1 MOL     -0.199331
    122 C40        -4.4460    3.2450   -1.2090 c3        1 MOL      0.000868
    123 C41        -5.7950    2.9100   -0.5380 c         1 MOL      0.468801
    124 O16        -5.7800    2.1880    0.4810 o         1 MOL     -0.386032
    125 C42        -4.4920    2.5830   -2.6480 c3        1 MOL     -0.317486
    126 O17        -4.7260    1.2050   -2.5650 oh        1 MOL     -0.289190
    127 H57        -3.0500    1.6980   -0.8850 hn        1 MOL      0.136279
    128 H58        -4.4020    4.3240   -1.3680 h1        1 MOL      0.083908
    129 H59        -3.6010    2.8130   -3.2410 h1        1 MOL      0.137274
    130 H60        -5.2620    3.0400   -3.2630 h1        1 MOL      0.137274
    131 H61        -4.2790    0.8740   -3.3510 ho        1 MOL      0.354231
    132 N12        -6.8950    3.3330   -1.2060 n         1 MOL     -0.410358
    133 C43        -8.2020    3.0700   -0.7120 c3        1 MOL      0.022487
    134 C44        -8.6120    1.6350   -1.1060 c         1 MOL      0.488714
    135 O18        -9.3900    1.0320   -0.4050 o         1 MOL     -0.495833
    136 C45        -9.2500    4.1080   -1.3340 c3        1 MOL     -0.212256
    137 H62        -6.8310    4.0320   -1.9300 hn        1 MOL      0.306550
    138 H63        -8.1540    3.1640    0.3720 h1        1 MOL      0.118077
    139 H64        -9.2910    3.8650   -2.4010 hc        1 MOL      0.073295
    140 H65       -10.2270    4.2610   -0.8730 hc        1 MOL      0.073295
    141 H66        -8.7510    5.0730   -1.4400 hc        1 MOL      0.073295
    142 N13        -7.8430    1.0510   -2.0290 n         1 MOL     -0.431259
    143 C46        -7.7770   -0.4200   -2.2720 c3        1 MOL      0.180909
    144 C47        -7.0680   -1.1620   -1.0820 c         1 MOL      0.365019
    145 O19        -7.6260   -2.0790   -0.5670 o         1 MOL     -0.514775
    146 C48        -7.1810   -0.7590   -3.6300 c3        1 MOL     -0.327327
    147 H67        -7.1290    1.5900   -2.5070 hn        1 MOL      0.235297
    148 H68        -8.7750   -0.8270   -2.1950 h1        1 MOL      0.077016
    149 H69        -6.1270   -0.5110   -3.7480 hc        1 MOL      0.083887
    150 H70        -7.2640   -1.8250   -3.7950 hc        1 MOL      0.083887
    151 H71        -7.7290   -0.2600   -4.4210 hc        1 MOL      0.083887
    152 N14        -5.9500   -0.6870   -0.5230 n         1 MOL     -0.002906
    153 C49        -5.2320   -1.3770    0.5120 c3        1 MOL     -0.150507
    154 C50        -5.8910   -1.1430    1.8030 c         1 MOL      0.514086
    155 O20        -5.6420   -2.0540    2.6250 o         1 MOL     -0.584404
    156 C51        -3.7870   -0.9090    0.6150 c3        1 MOL      0.018382
    157 C52        -2.9040   -1.4970   -0.5250 c3        1 MOL      0.026025
    158 C53        -1.4870   -0.9310   -0.5600 c         1 MOL      0.415329
    159 O21        -0.5830   -1.3990    0.1990 o         1 MOL     -0.575256
    160 O22        -1.3010    0.0560   -1.3310 o         1 MOL     -0.575256
    161 H72        -5.4580    0.1070   -0.8960 hn        1 MOL     -0.034457
    162 H73        -5.2810   -2.4610    0.3990 h1        1 MOL      0.105458
    163 H74        -3.4100   -1.2080    1.5890 hc        1 MOL      0.108234
    164 H75        -3.6460    0.1690    0.6190 hc        1 MOL      0.108234
    165 H76        -3.3800   -1.1770   -1.4570 hc        1 MOL     -0.057267
    166 H77        -2.7430   -2.5740   -0.5360 hc        1 MOL     -0.057267
    167 N15        -6.5490   -0.0270    2.0520 n         1 MOL     -0.129212
    168 C54        -7.3630    0.1390    3.3310 c3        1 MOL     -0.404932
    169 H78        -7.4850   -0.8310    3.8120 h1        1 MOL      0.151870
    170 H79        -6.8410    0.8160    4.0080 h1        1 MOL      0.151870
    171 H80        -8.3420    0.5490    3.0880 h1        1 MOL      0.151870
    172 H81        -6.6050    0.6540    1.3150 hn        1 MOL      0.155567
    173 Ca1         1.4400   -0.4430   -1.3190 Ca        1 MOL      1.812775
    174 O23         2.0500   -0.4560   -3.9640 oh        1 MOL     -0.886201
    175 H82         1.2990   -0.6760   -4.5090 ho        1 MOL      0.417182
    176 H83         2.6840   -1.1640   -4.1310 ho        1 MOL      0.417182
    177 O24         0.5120   -2.4300   -2.8440 oh        1 MOL     -0.886201
    178 H84         0.3050   -2.4700   -3.7790 ho        1 MOL      0.417182
    179 H85         0.8290   -3.3040   -2.6390 ho        1 MOL      0.417182
    180 O25         0.6120    1.5830   -2.9410 oh        1 MOL     -0.886201
    181 H86         0.0940    2.3720   -2.8480 ho        1 MOL      0.417182
    182 H87         1.0950    1.6980   -3.7530 ho        1 MOL      0.417182
@<TRIPOS>BOND
     1    1    2 1   
     2    1    4 1   
     3    1    5 1   
     4    1    6 1   
     5    2    3 2   
     6    2    7 1   
     7    7    8 1   
     8    7   15 1   
     9    8    9 1   
    10    8   11 1   
    11    8   16 1   
    12    9   10 2   
    13    9   19 1   
    14   11   12 1   
    15   11   17 1   
    16   11   18 1   
    17   12   13 1   
    18   12   14 1   
    19   19   20 1   
    20   19   28 1   
    21   20   21 1   
    22   20   23 1   
    23   20   29 1   
    24   21   22 2   
    25   21   41 1   
    26   23   24 1   
    27   23   30 1   
    28   23   31 1   
    29   24   25 1   
    30   24   32 1   
    31   24   33 1   
    32   25   26 1   
    33   25   34 1   
    34   25   35 1   
    35   26   27 1   
    36   26   36 1   
    37   26   37 1   
    38   27   38 1   
    39   27   39 1   
    40   27   40 1   
    41   41   42 1   
    42   41   49 1   
    43   42   43 1   
    44   42   45 1   
    45   42   50 1   
    46   43   44 2   
    47   43   53 1   
    48   45   46 1   
    49   45   51 1   
    50   45   52 1   
    51   46   47 1   
    52   46   48 1   
    53   53   54 1   
    54   53   57 1   
    55   54   55 1   
    56   54   58 1   
    57   54   59 1   
    58   55   56 2   
    59   55   60 1   
    60   60   61 1   
    61   60   68 1   
    62   61   62 1   
    63   61   64 1   
    64   61   69 1   
    65   62   63 2   
    66   62   74 1   
    67   64   65 1   
    68   64   70 1   
    69   64   71 1   
    70   65   66 1   
    71   65   67 2   
    72   66   72 1   
    73   66   73 1   
    74   74   75 1   
    75   74   78 1   
    76   75   76 1   
    77   75   79 1   
    78   75   80 1   
    79   76   77 2   
    80   76   81 1   
    81   81   82 1   
    82   81   93 1   
    83   82   83 1   
    84   82   85 1   
    85   82   94 1   
    86   83   84 2   
    87   83  102 1   
    88   85   86 1   
    89   85   95 1   
    90   85   96 1   
    91   86   87 ar  
    92   86   88 ar  
    93   87   89 ar  
    94   87   97 1   
    95   88   90 ar  
    96   88   98 1   
    97   89   91 ar  
    98   89   99 1   
    99   90   91 ar  
   100   90  100 1   
   101   91   92 1   
   102   92  101 1   
   103  102  103 1   
   104  102  110 1   
   105  103  104 1   
   106  103  106 1   
   107  103  111 1   
   108  104  105 2   
   109  104  121 1   
   110  106  107 1   
   111  106  108 1   
   112  106  112 1   
   113  107  109 1   
   114  107  113 1   
   115  107  114 1   
   116  108  115 1   
   117  108  116 1   
   118  108  117 1   
   119  109  118 1   
   120  109  119 1   
   121  109  120 1   
   122  121  122 1   
   123  121  127 1   
   124  122  123 1   
   125  122  125 1   
   126  122  128 1   
   127  123  124 2   
   128  123  132 1   
   129  125  126 1   
   130  125  129 1   
   131  125  130 1   
   132  126  131 1   
   133  132  133 1   
   134  132  137 1   
   135  133  134 1   
   136  133  136 1   
   137  133  138 1   
   138  134  135 2   
   139  134  142 1   
   140  136  139 1   
   141  136  140 1   
   142  136  141 1   
   143  142  143 1   
   144  142  147 1   
   145  143  144 1   
   146  143  146 1   
   147  143  148 1   
   148  144  145 2   
   149  144  152 1   
   150  146  149 1   
   151  146  150 1   
   152  146  151 1   
   153  152  153 1   
   154  152  161 1   
   155  153  154 1   
   156  153  156 1   
   157  153  162 1   
   158  154  155 2   
   159  154  167 1   
   160  156  157 1   
   161  156  163 1   
   162  156  164 1   
   163  157  158 1   
   164  157  165 1   
   165  157  166 1   
   166  158  159 1   
   167  158  160 1   
   168  167  168 1   
   169  167  172 1   
   170  168  169 1   
   171  168  170 1   
   172  168  171 1   
   173  174  175 1   
   174  174  176 1   
   175  177  178 1   
   176  177  179 1   
   177  180  181 1   
   178  180  182 1   
@<TRIPOS>SUBSTRUCTURE
     1 MOL         1 TEMP              0 ****  ****    0 ROOT
