@<TRIPOS>MOLECULE
MOL
  179   176     1     0     0
SMALL
resp


@<TRIPOS>ATOM
      1 C1          2.3720    2.0260    5.3920 c3        1 MOL     -0.307100
      2 C2          1.6400    2.1280    4.0350 c         1 MOL      0.682109
      3 O1          2.2680    2.3710    3.0600 o         1 MOL     -0.554753
      4 H1          2.2130    2.9420    5.9600 hc        1 MOL      0.082415
      5 H2          1.9790    1.1780    5.9550 hc        1 MOL      0.082415
      6 H3          3.4390    1.8850    5.2200 hc        1 MOL      0.082415
      7 N1          0.3370    2.0810    4.0180 n         1 MOL     -0.445578
      8 C3         -0.4400    1.9530    2.8320 c3        1 MOL      0.005892
      9 C4         -0.5740    3.3790    2.2730 c         1 MOL      0.407068
     10 O2         -1.5730    4.1240    2.4110 o         1 MOL     -0.450705
     11 C5         -1.7740    1.3180    3.2050 c3        1 MOL     -0.084853
     12 C6         -2.7220    1.3440    2.1180 c         1 MOL      0.564846
     13 O3         -3.9590    1.2260    2.2030 o         1 MOL     -0.662451
     14 O4         -2.1600    1.3720    1.0170 o         1 MOL     -0.662451
     15 H4         -0.1010    1.8180    4.8910 hn        1 MOL      0.260661
     16 H5          0.1230    1.3930    2.0810 h1        1 MOL      0.041821
     17 H6         -2.3030    1.6830    4.0900 hc        1 MOL      0.061050
     18 H7         -1.5780    0.2740    3.4150 hc        1 MOL      0.061050
     19 N2          0.4980    3.6680    1.5330 n         1 MOL     -0.192373
     20 C7          0.8190    4.9210    0.7440 c3        1 MOL      0.025663
     21 C8         -0.3660    5.6110    0.0450 c         1 MOL      0.495277
     22 O5         -0.5580    6.8170    0.2170 o         1 MOL     -0.548949
     23 C9          1.9800    4.5370   -0.2600 c3        1 MOL      0.095740
     24 C10         2.8940    5.6280   -0.6720 c3        1 MOL     -0.292567
     25 C11         3.9520    5.1630   -1.7020 c3        1 MOL     -0.007917
     26 C12         4.9870    6.2170   -2.0160 c3        1 MOL      0.055294
     27 N3          5.8040    5.7880   -3.1420 n4        1 MOL     -0.323183
     28 H8          1.2190    2.9560    1.5170 hn        1 MOL      0.125146
     29 H9          1.2350    5.6980    1.3900 h1        1 MOL      0.045279
     30 H10         1.5070    4.1420   -1.1620 hc        1 MOL      0.071326
     31 H11         2.6780    3.8100    0.1400 hc        1 MOL      0.071326
     32 H12         3.4570    5.9960    0.1840 hc        1 MOL      0.081904
     33 H13         2.1770    6.3490   -1.0620 hc        1 MOL      0.081904
     34 H14         3.4520    4.7640   -2.5870 hc        1 MOL      0.051437
     35 H15         4.5600    4.4010   -1.2150 hc        1 MOL      0.051437
     36 H16         5.6480    6.3990   -1.1690 hx        1 MOL      0.085033
     37 H17         4.4800    7.1420   -2.2530 hx        1 MOL      0.085033
     38 H18         5.3810    5.8110   -4.0620 hn        1 MOL      0.313150
     39 H19         6.5220    6.4790   -3.2920 hn        1 MOL      0.313150
     40 H20         6.1820    4.8520   -3.0490 hn        1 MOL      0.313150
     41 N4         -1.0770    4.8360   -0.7830 n         1 MOL     -0.325619
     42 C13        -2.3600    5.3160   -1.3880 c3        1 MOL      0.093246
     43 C14        -3.6990    5.1600   -0.5930 c         1 MOL      0.317426
     44 O6         -4.7650    5.6230   -0.9960 o         1 MOL     -0.521202
     45 C15        -2.5120    4.6630   -2.7450 c3        1 MOL     -0.402936
     46 C16        -2.2010    3.2410   -2.7450 c         1 MOL      0.870990
     47 O7         -2.4960    2.4580   -1.8000 o         1 MOL     -0.735888
     48 O8         -1.6670    2.7880   -3.7450 o         1 MOL     -0.735888
     49 H21        -0.8180    3.8630   -0.8460 hn        1 MOL      0.159789
     50 H22        -2.3200    6.3710   -1.6540 h1        1 MOL      0.096675
     51 H23        -1.8700    5.1670   -3.4620 hc        1 MOL      0.110255
     52 H24        -3.5240    4.7110   -3.1490 hc        1 MOL      0.110255
     53 N5         -3.6180    4.4910    0.5600 n         1 MOL      0.072701
     54 C17        -4.7960    4.2130    1.3150 c3        1 MOL     -0.170851
     55 C18        -5.8570    3.3260    0.5850 c         1 MOL      0.517749
     56 O9         -7.0590    3.5360    0.7860 o         1 MOL     -0.566830
     57 H25        -2.7220    4.2420    0.9610 hn        1 MOL      0.025483
     58 H26        -5.2450    5.1750    1.5310 h1        1 MOL      0.087985
     59 H27        -4.5900    3.7390    2.2840 h1        1 MOL      0.087985
     60 N6         -5.3510    2.3490   -0.1410 n         1 MOL     -0.111437
     61 C19        -6.1240    1.4630   -1.0630 c3        1 MOL     -0.192650
     62 C20        -6.5910    0.2490   -0.2790 c         1 MOL      0.335297
     63 O10        -7.4990   -0.4630   -0.7030 o         1 MOL     -0.483290
     64 C21        -5.4880    0.9980   -2.3860 c3        1 MOL     -0.034132
     65 C22        -4.6030   -0.1720   -2.2420 c         1 MOL      0.169917
     66 N7         -4.7250   -1.0700   -3.2030 n         1 MOL     -0.442668
     67 O11        -3.8370   -0.4420   -1.3310 o         1 MOL     -0.344419
     68 H28        -4.3620    2.1800   -0.0440 hn        1 MOL      0.092197
     69 H29        -6.9740    2.0790   -1.3420 h1        1 MOL      0.152931
     70 H30        -4.9540    1.8160   -2.8580 hc        1 MOL      0.100128
     71 H31        -6.3800    0.8050   -2.9610 hc        1 MOL      0.100128
     72 H32        -5.1540   -0.7700   -4.0720 hn        1 MOL      0.279643
     73 H33        -4.0830   -1.8420   -3.2050 hn        1 MOL      0.279643
     74 N8         -6.0350   -0.0530    0.9010 n         1 MOL     -0.090469
     75 C23        -6.2690   -1.2070    1.7850 c3        1 MOL     -0.172421
     76 C24        -5.3500   -2.4400    1.7380 c         1 MOL      0.655984
     77 O12        -5.6910   -3.5060    2.2430 o         1 MOL     -0.585195
     78 H34        -5.2850    0.5440    1.2130 hn        1 MOL      0.167874
     79 H35        -7.3000   -1.5510    1.7030 h1        1 MOL      0.084691
     80 H36        -6.1710   -0.8790    2.8220 h1        1 MOL      0.084691
     81 N9         -4.2370   -2.2900    1.1280 n         1 MOL     -0.704759
     82 C25        -3.2630   -3.3210    0.9700 c3        1 MOL      0.432321
     83 C26        -1.8590   -2.7150    1.1520 c         1 MOL      0.245164
     84 O13        -1.7780   -1.5310    0.8930 o         1 MOL     -0.477539
     85 C27        -3.2460   -3.8900   -0.4250 c3        1 MOL      0.333954
     86 C28        -4.4460   -4.7250   -0.7300 ca        1 MOL     -0.153668
     87 C29        -4.3660   -6.1490   -0.6720 ca        1 MOL     -0.166620
     88 C30        -5.6780   -4.0510   -1.0100 ca        1 MOL     -0.166620
     89 C31        -5.5310   -6.8470   -0.8870 ca        1 MOL     -0.180595
     90 C32        -6.8270   -4.7780   -1.2010 ca        1 MOL     -0.180595
     91 C33        -6.7760   -6.1980   -1.1460 ca        1 MOL      0.301493
     92 O14        -7.8790   -6.9480   -1.4330 oh        1 MOL     -0.456344
     93 H37        -4.0520   -1.4090    0.6630 hn        1 MOL      0.548893
     94 H38        -3.3950   -4.2150    1.5890 h1        1 MOL     -0.022778
     95 H39        -2.3790   -4.5470   -0.4980 hc        1 MOL     -0.097340
     96 H40        -3.2780   -3.0740   -1.1530 hc        1 MOL     -0.097340
     97 H41        -3.4090   -6.6530   -0.6120 ha        1 MOL      0.116008
     98 H42        -5.6630   -2.9740   -1.0500 ha        1 MOL      0.116008
     99 H43        -5.5800   -7.9190   -1.0380 ha        1 MOL      0.122625
    100 H44        -7.7140   -4.2390   -1.4780 ha        1 MOL      0.122625
    101 H45        -7.7170   -7.8690   -1.2220 ho        1 MOL      0.332221
    102 N10        -0.7780   -3.4510    1.5450 n         1 MOL     -0.473477
    103 C34         0.6430   -3.0260    1.4610 c3        1 MOL      0.099444
    104 C35         1.2950   -3.7880    0.3450 c         1 MOL      0.462540
    105 O15         1.3440   -5.0560    0.3090 o         1 MOL     -0.564411
    106 C36         1.3650   -3.3700    2.8200 c3        1 MOL      0.094812
    107 C37         0.7310   -2.4170    3.9350 c3        1 MOL      0.135291
    108 C38         2.8790   -3.1560    2.7710 c3        1 MOL     -0.384289
    109 C39         1.0130   -3.0250    5.2880 c3        1 MOL     -0.133250
    110 H46        -1.0410   -4.3990    1.7840 hn        1 MOL      0.276869
    111 H47         0.6720   -1.9790    1.1980 h1        1 MOL      0.030869
    112 H48         1.2590   -4.4160    3.0860 hc        1 MOL      0.053995
    113 H49        -0.3470   -2.2860    3.8060 hc        1 MOL     -0.013501
    114 H50         1.1120   -1.3950    3.9690 hc        1 MOL     -0.013501
    115 H51         3.3110   -3.8200    2.0280 hc        1 MOL      0.093132
    116 H52         3.1460   -2.1080    2.8530 hc        1 MOL      0.093132
    117 H53         3.1830   -3.6400    3.7010 hc        1 MOL      0.093132
    118 H54         2.0920   -3.1390    5.4000 hc        1 MOL      0.018845
    119 H55         0.7230   -2.2810    6.0400 hc        1 MOL      0.018845
    120 H56         0.4410   -3.9290    5.4740 hc        1 MOL      0.018845
    121 N11         2.0640   -3.0330   -0.4870 n         1 MOL     -0.305725
    122 C40         3.1440   -3.4800   -1.3740 c3        1 MOL      0.126098
    123 C41         4.5090   -3.3220   -0.8230 c         1 MOL      0.420723
    124 O16         4.6910   -2.4660    0.0470 o         1 MOL     -0.427988
    125 C42         2.8890   -2.8490   -2.7600 c3        1 MOL      0.072447
    126 O17         1.5880   -3.2380   -3.1230 oh        1 MOL     -0.587936
    127 H57         1.9340   -2.0370   -0.4030 hn        1 MOL      0.372324
    128 H58         3.0740   -4.5490   -1.5950 h1        1 MOL      0.070786
    129 H59         3.5080   -3.2830   -3.5470 h1        1 MOL      0.025123
    130 H60         2.8760   -1.7620   -2.6970 h1        1 MOL      0.025123
    131 H61         1.3780   -2.7830   -3.9410 ho        1 MOL      0.412577
    132 N12         5.4000   -4.1480   -1.2620 n         1 MOL     -0.519953
    133 C43         6.8140   -4.2630   -0.8940 c3        1 MOL      0.242079
    134 C44         7.5930   -2.9360   -0.8790 c         1 MOL      0.457197
    135 O18         8.1750   -2.5740    0.0910 o         1 MOL     -0.486030
    136 C45         7.4610   -5.2650   -1.8350 c3        1 MOL     -0.389635
    137 H62         5.0700   -4.8340   -1.9200 hn        1 MOL      0.315812
    138 H63         7.0130   -4.5910    0.1310 h1        1 MOL      0.066762
    139 H64         7.2400   -5.0160   -2.8730 hc        1 MOL      0.112126
    140 H65         8.5190   -5.4830   -1.6970 hc        1 MOL      0.112126
    141 H66         7.0320   -6.2480   -1.6560 hc        1 MOL      0.112126
    142 N13         7.4460   -2.1890   -1.9660 n         1 MOL     -0.399457
    143 C46         7.9300   -0.8220   -2.0170 c3        1 MOL      0.155509
    144 C47         7.3170    0.1110   -0.9040 c         1 MOL      0.391709
    145 O19         7.9410    0.9860   -0.4190 o         1 MOL     -0.503616
    146 C48         7.6550   -0.2980   -3.4670 c3        1 MOL     -0.350863
    147 H67         6.9170   -2.4700   -2.7840 hn        1 MOL      0.250835
    148 H68         8.9980   -0.8600   -1.8090 h1        1 MOL      0.073708
    149 H69         6.5790   -0.3210   -3.6260 hc        1 MOL      0.096680
    150 H70         7.9540    0.7490   -3.4550 hc        1 MOL      0.096680
    151 H71         8.1730   -0.9470   -4.1760 hc        1 MOL      0.096680
    152 N14         6.0190   -0.0560   -0.5750 n         1 MOL     -0.207357
    153 C49         5.3950    0.6340    0.5700 c3        1 MOL     -0.153891
    154 C50         5.9540    0.3460    1.9930 c         1 MOL      0.502807
    155 O20         5.9920    1.2750    2.7930 o         1 MOL     -0.544483
    156 C51         3.8780    0.4730    0.5440 c3        1 MOL      0.319330
    157 C52         3.2260    0.7990   -0.8240 c3        1 MOL      0.025656
    158 C53         1.6550    0.7230   -0.7890 c         1 MOL      0.727947
    159 O21         0.9140    1.6950   -1.2220 o         1 MOL     -0.741408
    160 O22         1.0750   -0.2730   -0.5040 o         1 MOL     -0.741408
    161 H72         5.5220   -0.8170   -1.0280 hn        1 MOL      0.151134
    162 H73         5.5480    1.6980    0.4140 h1        1 MOL      0.087129
    163 H74         3.5720    1.2630    1.2250 hc        1 MOL     -0.088285
    164 H75         3.6540   -0.4840    1.0100 hc        1 MOL     -0.088285
    165 H76         3.5880    0.0110   -1.4880 hc        1 MOL     -0.102310
    166 H77         3.4990    1.7770   -1.2240 hc        1 MOL     -0.102310
    167 N15         6.4600   -0.8560    2.1260 n         1 MOL     -0.084069
    168 C54         7.2010   -1.2300    3.3160 c3        1 MOL     -0.237681
    169 H78         7.0690   -0.4650    4.0810 h1        1 MOL      0.095979
    170 H79         6.8320   -2.1850    3.6900 h1        1 MOL      0.095979
    171 H80         8.2600   -1.3180    3.0720 h1        1 MOL      0.095979
    172 H81         6.2320   -1.5750    1.4540 hn        1 MOL      0.154982
    173 Ca1        -1.3630    0.2660   -1.1310 Ca        1 MOL      1.679903
    174 O23        -1.2250   -2.2890   -2.2440 oh        1 MOL     -0.880576
    175 H82        -1.9370   -2.8710   -2.4860 ho        1 MOL      0.402367
    176 H83        -0.4310   -2.7500   -2.5260 ho        1 MOL      0.402367
    177 O24        -0.7460    0.3570   -3.6060 oh        1 MOL     -0.880576
    178 H84        -0.4350   -0.1230   -4.3680 ho        1 MOL      0.402367
    179 H85        -0.9370    1.2310   -3.9340 ho        1 MOL      0.402367
@<TRIPOS>BOND
     1    1    2 1   
     2    1    4 1   
     3    1    5 1   
     4    1    6 1   
     5    2    3 2   
     6    2    7 1   
     7    7    8 1   
     8    7   15 1   
     9    8    9 1   
    10    8   11 1   
    11    8   16 1   
    12    9   10 2   
    13    9   19 1   
    14   11   12 1   
    15   11   17 1   
    16   11   18 1   
    17   12   13 1   
    18   12   14 1   
    19   19   20 1   
    20   19   28 1   
    21   20   21 1   
    22   20   23 1   
    23   20   29 1   
    24   21   22 2   
    25   21   41 1   
    26   23   24 1   
    27   23   30 1   
    28   23   31 1   
    29   24   25 1   
    30   24   32 1   
    31   24   33 1   
    32   25   26 1   
    33   25   34 1   
    34   25   35 1   
    35   26   27 1   
    36   26   36 1   
    37   26   37 1   
    38   27   38 1   
    39   27   39 1   
    40   27   40 1   
    41   41   42 1   
    42   41   49 1   
    43   42   43 1   
    44   42   45 1   
    45   42   50 1   
    46   43   44 2   
    47   43   53 1   
    48   45   46 1   
    49   45   51 1   
    50   45   52 1   
    51   46   47 1   
    52   46   48 1   
    53   53   54 1   
    54   53   57 1   
    55   54   55 1   
    56   54   58 1   
    57   54   59 1   
    58   55   56 2   
    59   55   60 1   
    60   60   61 1   
    61   60   68 1   
    62   61   62 1   
    63   61   64 1   
    64   61   69 1   
    65   62   63 2   
    66   62   74 1   
    67   64   65 1   
    68   64   70 1   
    69   64   71 1   
    70   65   66 1   
    71   65   67 2   
    72   66   72 1   
    73   66   73 1   
    74   74   75 1   
    75   74   78 1   
    76   75   76 1   
    77   75   79 1   
    78   75   80 1   
    79   76   77 2   
    80   76   81 1   
    81   81   82 1   
    82   81   93 1   
    83   82   83 1   
    84   82   85 1   
    85   82   94 1   
    86   83   84 2   
    87   83  102 1   
    88   85   86 1   
    89   85   95 1   
    90   85   96 1   
    91   86   87 ar  
    92   86   88 ar  
    93   87   89 ar  
    94   87   97 1   
    95   88   90 ar  
    96   88   98 1   
    97   89   91 ar  
    98   89   99 1   
    99   90   91 ar  
   100   90  100 1   
   101   91   92 1   
   102   92  101 1   
   103  102  103 1   
   104  102  110 1   
   105  103  104 1   
   106  103  106 1   
   107  103  111 1   
   108  104  105 2   
   109  104  121 1   
   110  106  107 1   
   111  106  108 1   
   112  106  112 1   
   113  107  109 1   
   114  107  113 1   
   115  107  114 1   
   116  108  115 1   
   117  108  116 1   
   118  108  117 1   
   119  109  118 1   
   120  109  119 1   
   121  109  120 1   
   122  121  122 1   
   123  121  127 1   
   124  122  123 1   
   125  122  125 1   
   126  122  128 1   
   127  123  124 2   
   128  123  132 1   
   129  125  126 1   
   130  125  129 1   
   131  125  130 1   
   132  126  131 1   
   133  132  133 1   
   134  132  137 1   
   135  133  134 1   
   136  133  136 1   
   137  133  138 1   
   138  134  135 2   
   139  134  142 1   
   140  136  139 1   
   141  136  140 1   
   142  136  141 1   
   143  142  143 1   
   144  142  147 1   
   145  143  144 1   
   146  143  146 1   
   147  143  148 1   
   148  144  145 2   
   149  144  152 1   
   150  146  149 1   
   151  146  150 1   
   152  146  151 1   
   153  152  153 1   
   154  152  161 1   
   155  153  154 1   
   156  153  156 1   
   157  153  162 1   
   158  154  155 2   
   159  154  167 1   
   160  156  157 1   
   161  156  163 1   
   162  156  164 1   
   163  157  158 1   
   164  157  165 1   
   165  157  166 1   
   166  158  159 1   
   167  158  160 1   
   168  167  168 1   
   169  167  172 1   
   170  168  169 1   
   171  168  170 1   
   172  168  171 1   
   173  174  175 1   
   174  174  176 1   
   175  177  178 1   
   176  177  179 1   
@<TRIPOS>SUBSTRUCTURE
     1 MOL         1 TEMP              0 ****  ****    0 ROOT
