@<TRIPOS>MOLECULE
MOL
  175   173     1     0     0
SMALL
resp


@<TRIPOS>ATOM
      1 C1          0.5600    4.6890    5.4770 c3        1 MOL     -0.454611
      2 C2          0.0260    4.2310    4.0730 c         1 MOL      0.658883
      3 O1          0.8020    4.1540    3.0950 o         1 MOL     -0.544256
      4 H1          1.0120    5.6760    5.3890 hc        1 MOL      0.121361
      5 H2         -0.2680    4.7310    6.1850 hc        1 MOL      0.121361
      6 H3          1.3060    3.9780    5.8320 hc        1 MOL      0.121361
      7 N1         -1.2890    3.9460    3.9540 n         1 MOL     -0.613227
      8 C3         -1.9340    3.6110    2.6330 c3        1 MOL      0.026112
      9 C4         -1.9700    4.7150    1.5730 c         1 MOL      0.786271
     10 O2         -2.3460    5.8410    1.9200 o         1 MOL     -0.640099
     11 C5         -3.3930    3.2630    2.8870 c3        1 MOL     -0.335592
     12 C6         -4.1130    2.5370    1.6940 c         1 MOL      0.714993
     13 O3         -5.3410    2.3380    1.8160 o         1 MOL     -0.681293
     14 O4         -3.5450    2.1800    0.6780 o         1 MOL     -0.681293
     15 H4         -1.8880    4.0340    4.7560 hn        1 MOL      0.350281
     16 H5         -1.4580    2.7260    2.2130 h1        1 MOL      0.127478
     17 H6         -3.9330    4.1540    3.2070 hc        1 MOL      0.079381
     18 H7         -3.3290    2.6030    3.7460 hc        1 MOL      0.079381
     19 N2         -1.6900    4.4180    0.3400 n         1 MOL     -0.668195
     20 C7         -1.6610    5.2960   -0.8100 c3        1 MOL      0.342750
     21 C8         -2.7260    4.8640   -1.8530 c         1 MOL      0.493891
     22 O5         -2.7510    5.6590   -2.7900 o         1 MOL     -0.587463
     23 C9         -0.2290    5.3860   -1.3610 c3        1 MOL     -0.166277
     24 H8         -1.5690    3.4500    0.0870 hn        1 MOL      0.332500
     25 H9         -1.9140    6.3170   -0.5400 h1        1 MOL      0.006428
     26 H10        -0.2280    5.8420   -2.3570 hc        1 MOL      0.033656
     27 H11         0.3280    5.9970   -0.6440 hc        1 MOL      0.033656
     28 H12         0.1840    4.3790   -1.4260 hc        1 MOL      0.033656
     29 N3         -3.5900    3.8650   -1.6870 n         1 MOL     -0.369734
     30 C10        -4.5290    3.5550   -2.7140 c3        1 MOL     -0.017681
     31 C11        -5.8290    2.8390   -2.3100 c         1 MOL      0.420690
     32 O6         -6.7570    2.8650   -3.1620 o         1 MOL     -0.558761
     33 C12        -3.9190    2.6060   -3.7760 c3        1 MOL      0.027719
     34 C13        -3.3200    1.2730   -3.2710 c         1 MOL      0.597266
     35 O7         -3.5340    0.8880   -2.0870 o         1 MOL     -0.672530
     36 O8         -2.6900    0.5160   -4.1020 o         1 MOL     -0.672530
     37 H13        -3.4880    3.2430   -0.9040 hn        1 MOL      0.193350
     38 H14        -4.9370    4.4770   -3.1370 h1        1 MOL      0.095658
     39 H15        -3.1530    3.1150   -4.3490 hc        1 MOL      0.009276
     40 H16        -4.5860    2.4280   -4.6190 hc        1 MOL      0.009276
     41 N4         -6.0310    2.2700   -1.0980 n         1 MOL     -0.218350
     42 C14        -7.2230    1.4630   -0.7620 c3        1 MOL     -0.327287
     43 C15        -7.2500   -0.0030   -1.2300 c         1 MOL      0.589355
     44 O9         -8.3130   -0.6400   -1.0410 o         1 MOL     -0.606404
     45 H17        -5.3470    2.3950   -0.3730 hn        1 MOL      0.255656
     46 H18        -8.1120    1.8930   -1.2170 h1        1 MOL      0.145944
     47 H19        -7.3770    1.5270    0.3150 h1        1 MOL      0.145944
     48 N5         -6.1660   -0.5930   -1.8130 n         1 MOL     -0.288408
     49 C16        -6.1590   -1.9810   -2.2490 c3        1 MOL     -0.078461
     50 C17        -6.2220   -3.1100   -1.1590 c         1 MOL      0.405633
     51 O10        -6.3230   -4.3230   -1.4450 o         1 MOL     -0.530055
     52 C18        -4.9710   -2.1700   -3.1020 c3        1 MOL     -0.014304
     53 C19        -3.5820   -2.3310   -2.5150 c         1 MOL      0.418289
     54 N6         -2.6450   -2.8270   -3.2700 n         1 MOL     -0.580010
     55 O11        -3.3880   -2.1400   -1.3230 o         1 MOL     -0.333075
     56 H20        -5.3050   -0.0900   -1.6570 hn        1 MOL      0.208767
     57 H21        -7.0570   -2.2160   -2.8250 h1        1 MOL      0.116471
     58 H22        -4.9320   -1.3490   -3.8270 hc        1 MOL      0.026687
     59 H23        -5.1700   -3.0320   -3.7390 hc        1 MOL      0.026687
     60 H24        -2.8010   -3.0140   -4.2510 hn        1 MOL      0.321200
     61 H25        -1.6940   -2.7200   -2.9350 hn        1 MOL      0.321200
     62 N7         -6.1440   -2.7490    0.1360 n         1 MOL     -0.077265
     63 C20        -6.4130   -3.6560    1.2610 c3        1 MOL     -0.313380
     64 C21        -5.1360   -4.2210    1.7730 c         1 MOL      0.617546
     65 O12        -5.2160   -5.0330    2.6770 o         1 MOL     -0.616362
     66 H26        -6.0190   -1.7640    0.3110 hn        1 MOL      0.134863
     67 H27        -7.1220   -4.4460    1.0300 h1        1 MOL      0.138612
     68 H28        -6.8230   -3.0800    2.0990 h1        1 MOL      0.138612
     69 N8         -3.9910   -3.8200    1.2660 n         1 MOL     -0.282092
     70 C22        -2.7010   -4.2930    1.7030 c3        1 MOL      0.025044
     71 C23        -1.6140   -3.2860    1.7580 c         1 MOL      0.528591
     72 O13        -1.6100   -2.3110    1.0080 o         1 MOL     -0.687248
     73 C24        -2.1460   -5.3630    0.7690 c3        1 MOL      0.639775
     74 C25        -2.8370   -6.7130    1.0640 c3        1 MOL     -0.396310
     75 O14        -2.2240   -5.0370   -0.6250 oh        1 MOL     -0.622403
     76 H29        -4.0440   -3.1540    0.5100 hn        1 MOL      0.099174
     77 H30        -2.7810   -4.6610    2.7250 h1        1 MOL      0.020938
     78 H31        -1.1080   -5.4820    1.0630 h1        1 MOL     -0.114946
     79 H32        -1.6530   -4.2630   -0.6740 ho        1 MOL      0.337493
     80 H33        -2.6840   -7.4160    0.2470 hc        1 MOL      0.085654
     81 H34        -2.3390   -7.0670    1.9720 hc        1 MOL      0.085654
     82 H35        -3.8710   -6.5270    1.3680 hc        1 MOL      0.085654
     83 N9         -0.4910   -3.6000    2.4490 n         1 MOL     -0.516530
     84 C26         0.7550   -2.8140    2.4140 c3        1 MOL     -0.013272
     85 C27         1.5130   -3.2940    1.1940 c         1 MOL      0.605685
     86 O15         1.9390   -4.4280    0.9070 o         1 MOL     -0.599058
     87 C28         1.5920   -2.9000    3.6580 c3        1 MOL     -0.058996
     88 C29         1.0510   -1.9140    4.7670 c3        1 MOL     -0.388943
     89 C30         3.1010   -2.5740    3.5640 c3        1 MOL     -0.069794
     90 C31         1.2060   -0.3960    4.6880 c3        1 MOL     -0.237814
     91 H36        -0.3640   -4.4600    2.9620 hn        1 MOL      0.290743
     92 H37         0.4760   -1.7840    2.2060 h1        1 MOL      0.299776
     93 H38         1.4440   -3.8900    4.0940 hc        1 MOL      0.053892
     94 H39         1.5200   -2.2120    5.7010 hc        1 MOL      0.121526
     95 H40        -0.0160   -2.1080    4.8930 hc        1 MOL      0.121526
     96 H41         3.2460   -1.7980    2.8100 hc        1 MOL      0.022371
     97 H42         3.6290   -2.2420    4.4550 hc        1 MOL      0.022371
     98 H43         3.5500   -3.4210    3.0400 hc        1 MOL      0.022371
     99 H44         2.2500   -0.0640    4.7040 hc        1 MOL      0.085131
    100 H45         0.6320   -0.0070    3.8380 hc        1 MOL      0.085131
    101 H46         0.7760   -0.0360    5.6180 hc        1 MOL      0.085131
    102 N10         1.7190   -2.3010    0.3280 n         1 MOL     -0.125466
    103 C32         2.5630   -2.3220   -0.8550 c3        1 MOL      0.009917
    104 C33         4.0810   -1.9200   -0.6230 c         1 MOL      0.374603
    105 O16         4.3830   -1.3420    0.4150 o         1 MOL     -0.254933
    106 C34         1.9610   -1.3200   -1.8720 c3        1 MOL     -0.534742
    107 C35         0.4720   -1.6340   -2.0530 c         1 MOL      0.816510
    108 O17        -0.4530   -0.8180   -1.6770 o         1 MOL     -0.671648
    109 O18         0.1530   -2.6560   -2.6740 o         1 MOL     -0.671648
    110 H47         1.2850   -1.4190    0.5790 hn        1 MOL      0.017590
    111 H48         2.5000   -3.3110   -1.2900 h1        1 MOL      0.088896
    112 H49         2.5680   -1.6350   -2.7170 hc        1 MOL      0.170345
    113 H50         2.1890   -0.3290   -1.4580 hc        1 MOL      0.170345
    114 N11         5.0120   -2.0590   -1.6640 n         1 MOL     -0.567766
    115 C36         6.4250   -1.7030   -1.4550 c3        1 MOL      0.284184
    116 C37         6.6820   -0.1990   -1.1250 c         1 MOL      0.484100
    117 O19         7.3450    0.1390   -0.1310 o         1 MOL     -0.506194
    118 C38         7.2710   -2.2550   -2.5190 c3        1 MOL     -0.176922
    119 C39         8.6910   -1.7290   -2.2910 ca        1 MOL      0.063317
    120 C40         9.3800   -2.0550   -1.1130 ca        1 MOL     -0.223302
    121 C41         9.2760   -0.8540   -3.2090 ca        1 MOL     -0.223302
    122 C42        10.6910   -1.7150   -0.8780 ca        1 MOL     -0.002953
    123 C43        10.5950   -0.4790   -2.9390 ca        1 MOL     -0.002953
    124 C44        11.3110   -0.9360   -1.8320 ca        1 MOL     -0.196601
    125 H51         4.8440   -2.4790   -2.5670 hn        1 MOL      0.327438
    126 H52         6.6350   -2.1880   -0.4970 h1        1 MOL      0.037409
    127 H53         6.9730   -1.9730   -3.5300 hc        1 MOL      0.064438
    128 H54         7.2510   -3.3410   -2.4730 hc        1 MOL      0.064438
    129 H55         8.8510   -2.6530   -0.3850 ha        1 MOL      0.124857
    130 H56         8.7970   -0.4540   -4.0890 ha        1 MOL      0.124857
    131 H57        11.2080   -2.1440   -0.0260 ha        1 MOL      0.083180
    132 H58        11.0340    0.0970   -3.7380 ha        1 MOL      0.083180
    133 H59        12.3610   -0.6870   -1.7570 ha        1 MOL      0.104798
    134 N12         6.1120    0.7290   -1.8990 n         1 MOL     -0.082633
    135 C45         6.2490    2.1380   -1.6450 c3        1 MOL     -0.085962
    136 C46         5.6480    2.4680   -0.2520 c         1 MOL      0.438954
    137 O20         6.1760    3.3790    0.3160 o         1 MOL     -0.533309
    138 C47         5.5550    2.8930   -2.8280 c3        1 MOL     -0.023040
    139 C48         4.5050    1.8530   -3.1820 c3        1 MOL     -0.076248
    140 C49         5.3590    0.5830   -3.0900 c3        1 MOL     -0.001771
    141 H60         7.3040    2.4200   -1.7400 h1        1 MOL      0.062845
    142 H61         5.0740    3.8080   -2.4770 hc        1 MOL      0.039168
    143 H62         6.0490    3.0880   -3.7710 hc        1 MOL      0.039168
    144 H63         3.6220    1.9550   -2.5530 hc        1 MOL      0.056785
    145 H64         4.2900    2.0910   -4.2290 hc        1 MOL      0.056785
    146 H65         4.6450   -0.2450   -3.0390 h1        1 MOL      0.014645
    147 H66         6.0230    0.3820   -3.9340 h1        1 MOL      0.014645
    148 N13         4.6510    1.8050    0.2230 n         1 MOL      0.018916
    149 C50         4.1140    1.9690    1.5470 c3        1 MOL     -0.157733
    150 C51         4.9580    1.3550    2.6670 c         1 MOL      0.495538
    151 O21         5.0770    1.9740    3.7080 o         1 MOL     -0.569326
    152 C52         2.6750    1.4140    1.5030 c3        1 MOL      0.166615
    153 C53         1.6980    2.1060    0.5030 c3        1 MOL     -0.446623
    154 C54         0.3230    1.4160    0.3800 c         1 MOL      0.430494
    155 O22         0.0200    0.3940    1.0460 o         1 MOL     -0.609102
    156 O23        -0.5560    1.8300   -0.3900 o         1 MOL     -0.609102
    157 H67         4.1920    1.0880   -0.3190 hn        1 MOL     -0.114823
    158 H68         4.0650    3.0240    1.8080 h1        1 MOL      0.094036
    159 H69         2.3440    1.5160    2.5360 hc        1 MOL      0.027707
    160 H70         2.9160    0.4110    1.1480 hc        1 MOL      0.027707
    161 H71         2.0770    2.0780   -0.5110 hc        1 MOL      0.193632
    162 H72         1.6440    3.1770    0.7120 hc        1 MOL      0.193632
    163 N14         5.4840    0.1710    2.4280 n         1 MOL     -0.051891
    164 C55         6.4240   -0.4490    3.3460 c3        1 MOL     -0.178177
    165 H73         6.7340    0.2800    4.0950 h1        1 MOL      0.075420
    166 H74         5.9450   -1.2950    3.8400 h1        1 MOL      0.075420
    167 H75         7.2960   -0.7960    2.7930 h1        1 MOL      0.075420
    168 H76         5.0540   -0.2900    1.6520 hn        1 MOL      0.014600
    169 Ca1        -2.3070   -0.0180   -0.0990 Ca        1 MOL      1.662710
    170 O24        -1.9390    0.1170    2.7710 oh        1 MOL     -0.810330
    171 H77        -1.9010    0.1640    3.7210 ho        1 MOL      0.408041
    172 H78        -1.0580    0.3440    2.4720 ho        1 MOL      0.408041
    173 O25        -4.8030   -0.2380    0.9700 oh        1 MOL     -0.810330
    174 H79        -4.9030    0.7120    1.0000 ho        1 MOL      0.408041
    175 H80        -5.1890   -0.5470    1.7850 ho        1 MOL      0.408041
@<TRIPOS>BOND
     1    1    2 1   
     2    1    4 1   
     3    1    5 1   
     4    1    6 1   
     5    2    3 2   
     6    2    7 1   
     7    7    8 1   
     8    7   15 1   
     9    8    9 1   
    10    8   11 1   
    11    8   16 1   
    12    9   10 2   
    13    9   19 1   
    14   11   12 1   
    15   11   17 1   
    16   11   18 1   
    17   12   13 1   
    18   12   14 1   
    19   19   20 1   
    20   19   24 1   
    21   20   21 1   
    22   20   23 1   
    23   20   25 1   
    24   21   22 2   
    25   21   29 1   
    26   23   26 1   
    27   23   27 1   
    28   23   28 1   
    29   29   30 1   
    30   29   37 1   
    31   30   31 1   
    32   30   33 1   
    33   30   38 1   
    34   31   32 2   
    35   31   41 1   
    36   33   34 1   
    37   33   39 1   
    38   33   40 1   
    39   34   35 1   
    40   34   36 1   
    41   41   42 1   
    42   41   45 1   
    43   42   43 1   
    44   42   46 1   
    45   42   47 1   
    46   43   44 2   
    47   43   48 1   
    48   48   49 1   
    49   48   56 1   
    50   49   50 1   
    51   49   52 1   
    52   49   57 1   
    53   50   51 2   
    54   50   62 1   
    55   52   53 1   
    56   52   58 1   
    57   52   59 1   
    58   53   54 1   
    59   53   55 2   
    60   54   60 1   
    61   54   61 1   
    62   62   63 1   
    63   62   66 1   
    64   63   64 1   
    65   63   67 1   
    66   63   68 1   
    67   64   65 2   
    68   64   69 1   
    69   69   70 1   
    70   69   76 1   
    71   70   71 1   
    72   70   73 1   
    73   70   77 1   
    74   71   72 2   
    75   71   83 1   
    76   73   74 1   
    77   73   75 1   
    78   73   78 1   
    79   74   80 1   
    80   74   81 1   
    81   74   82 1   
    82   75   79 1   
    83   83   84 1   
    84   83   91 1   
    85   84   85 1   
    86   84   87 1   
    87   84   92 1   
    88   85   86 2   
    89   85  102 1   
    90   87   88 1   
    91   87   89 1   
    92   87   93 1   
    93   88   90 1   
    94   88   94 1   
    95   88   95 1   
    96   89   96 1   
    97   89   97 1   
    98   89   98 1   
    99   90   99 1   
   100   90  100 1   
   101   90  101 1   
   102  102  103 1   
   103  102  110 1   
   104  103  104 1   
   105  103  106 1   
   106  103  111 1   
   107  104  105 2   
   108  104  114 1   
   109  106  107 1   
   110  106  112 1   
   111  106  113 1   
   112  107  108 1   
   113  107  109 1   
   114  114  115 1   
   115  114  125 1   
   116  115  116 1   
   117  115  118 1   
   118  115  126 1   
   119  116  117 2   
   120  116  134 1   
   121  118  119 1   
   122  118  127 1   
   123  118  128 1   
   124  119  120 ar  
   125  119  121 ar  
   126  120  122 ar  
   127  120  129 1   
   128  121  123 ar  
   129  121  130 1   
   130  122  124 ar  
   131  122  131 1   
   132  123  124 ar  
   133  123  132 1   
   134  124  133 1   
   135  134  135 1   
   136  134  140 1   
   137  135  136 1   
   138  135  138 1   
   139  135  141 1   
   140  136  137 2   
   141  136  148 1   
   142  138  139 1   
   143  138  142 1   
   144  138  143 1   
   145  139  140 1   
   146  139  144 1   
   147  139  145 1   
   148  140  146 1   
   149  140  147 1   
   150  148  149 1   
   151  148  157 1   
   152  149  150 1   
   153  149  152 1   
   154  149  158 1   
   155  150  151 2   
   156  150  163 1   
   157  152  153 1   
   158  152  159 1   
   159  152  160 1   
   160  153  154 1   
   161  153  161 1   
   162  153  162 1   
   163  154  155 1   
   164  154  156 1   
   165  163  164 1   
   166  163  168 1   
   167  164  165 1   
   168  164  166 1   
   169  164  167 1   
   170  170  171 1   
   171  170  172 1   
   172  173  174 1   
   173  173  175 1   
@<TRIPOS>SUBSTRUCTURE
     1 MOL         1 TEMP              0 ****  ****    0 ROOT
