@<TRIPOS>MOLECULE
MOL
  189   185     1     0     0
SMALL
resp


@<TRIPOS>ATOM
      1 C1          0.5630   -2.3310    6.6520 c3        1 MOL     -0.450813
      2 C2          1.1770   -2.2110    5.2210 c         1 MOL      0.671326
      3 O1          0.9470   -1.2410    4.4450 o         1 MOL     -0.600517
      4 H1         -0.2280   -1.5890    6.7700 hc        1 MOL      0.122027
      5 H2          0.1480   -3.3290    6.7880 hc        1 MOL      0.122027
      6 H3          1.3390   -2.1550    7.3960 hc        1 MOL      0.122027
      7 N1          1.8170   -3.2330    4.6800 n         1 MOL     -0.522148
      8 C3          2.3440   -3.2370    3.2980 c3        1 MOL      0.268065
      9 C4          2.3100   -4.5750    2.5500 c         1 MOL      0.337115
     10 O2          2.6440   -5.6650    3.0620 o         1 MOL     -0.568471
     11 C5          3.8100   -2.7510    3.4610 c3        1 MOL     -0.196982
     12 C6          4.4440   -2.5350    2.0360 c         1 MOL      0.731807
     13 O3          5.6680   -2.4910    1.8960 o         1 MOL     -0.698576
     14 O4          3.7130   -2.3550    1.0600 o         1 MOL     -0.698576
     15 H4          1.8970   -4.0620    5.2620 hn        1 MOL      0.277328
     16 H5          1.7380   -2.5920    2.6580 h1        1 MOL     -0.008995
     17 H6          4.3580   -3.4280    4.1030 hc        1 MOL      0.045785
     18 H7          3.9750   -1.9030    4.1200 hc        1 MOL      0.045785
     19 N2          2.0030   -4.4400    1.2770 n         1 MOL     -0.002285
     20 C7          1.9330   -5.4740    0.2450 c3        1 MOL     -0.053379
     21 C8          3.1650   -5.4350   -0.6840 c         1 MOL      0.638086
     22 O5          3.9490   -6.4150   -0.7880 o         1 MOL     -0.600567
     23 C9          0.5770   -5.5400   -0.5830 c3        1 MOL      0.155436
     24 C10        -0.7060   -5.6210    0.2390 c3        1 MOL     -0.008898
     25 C11         0.7950   -6.6680   -1.6270 c3        1 MOL     -0.369676
     26 C12        -1.9700   -5.3820   -0.6090 c3        1 MOL     -0.084766
     27 H8          1.8650   -3.4720    0.9930 hn        1 MOL     -0.011774
     28 H9          1.9900   -6.4990    0.6100 h1        1 MOL      0.025354
     29 H10         0.5070   -4.5160   -0.9520 hc        1 MOL     -0.022073
     30 H11        -0.6400   -4.8070    0.9580 hc        1 MOL     -0.002919
     31 H12        -0.8040   -6.5270    0.8360 hc        1 MOL     -0.002919
     32 H13        -0.0220   -6.5520   -2.3490 hc        1 MOL      0.086699
     33 H14         1.7070   -6.6290   -2.2210 hc        1 MOL      0.086699
     34 H15         0.7620   -7.6520   -1.1610 hc        1 MOL      0.086699
     35 H16        -2.8410   -5.1540   -0.0020 hc        1 MOL      0.018326
     36 H17        -1.8720   -4.4760   -1.2050 hc        1 MOL      0.018326
     37 H18        -2.2040   -6.2220   -1.2630 hc        1 MOL      0.018326
     38 N3          3.4080   -4.2200   -1.1660 n         1 MOL     -0.349226
     39 C13         4.0220   -4.0550   -2.4970 c3        1 MOL     -0.021042
     40 C14         5.3690   -3.3460   -2.4140 c         1 MOL      0.427228
     41 O6          6.1690   -3.3020   -3.3720 o         1 MOL     -0.562674
     42 C15         3.0900   -3.3150   -3.4600 c3        1 MOL     -0.157958
     43 C16         2.4830   -2.0150   -2.9120 c         1 MOL      0.771351
     44 O7          3.0800   -1.3930   -2.0320 o         1 MOL     -0.743327
     45 O8          1.3940   -1.5170   -3.4750 o         1 MOL     -0.743327
     46 H19         2.7710   -3.4930   -0.8520 hn        1 MOL      0.261175
     47 H20         4.2600   -5.0400   -2.8930 h1        1 MOL      0.090340
     48 H21         2.2980   -4.0220   -3.7300 hc        1 MOL      0.043591
     49 H22         3.6120   -3.1070   -4.3870 hc        1 MOL      0.043591
     50 N4          5.6910   -2.7750   -1.2550 n         1 MOL     -0.230497
     51 C17         7.0550   -2.1170   -1.0520 c3        1 MOL     -0.101118
     52 C18         7.3440   -0.7670   -1.7320 c         1 MOL      0.453427
     53 O9          8.5620   -0.6350   -1.9690 o         1 MOL     -0.606680
     54 H23         5.0430   -2.7190   -0.4890 hn        1 MOL      0.183789
     55 H24         7.8540   -2.7820   -1.3740 h1        1 MOL      0.088416
     56 H25         7.2620   -1.9050    0.0010 h1        1 MOL      0.088416
     57 N5          6.4060    0.0800   -2.0500 n         1 MOL     -0.143653
     58 C19         6.6330    1.3460   -2.7690 c3        1 MOL     -0.103107
     59 C20         6.9750    2.4830   -1.7060 c         1 MOL      0.504332
     60 O10         7.5600    3.4490   -2.0960 o         1 MOL     -0.544031
     61 C21         5.3780    1.7370   -3.5490 c3        1 MOL     -0.127949
     62 C22         4.0140    1.8190   -2.8380 c         1 MOL      0.786837
     63 O11         3.9430    1.5120   -1.6430 o         1 MOL     -0.710091
     64 O12         3.0280    2.1770   -3.5160 o         1 MOL     -0.710091
     65 H26         5.4630   -0.2980   -2.0420 hn        1 MOL      0.231651
     66 H27         7.4470    1.2430   -3.4840 h1        1 MOL      0.111864
     67 H28         5.2030    1.0900   -4.4090 hc        1 MOL      0.028339
     68 H29         5.5510    2.7280   -3.9860 hc        1 MOL      0.028339
     69 N6          6.8000    2.2200   -0.3890 n         1 MOL     -0.314947
     70 C23         7.1920    3.2610    0.5950 c3        1 MOL     -0.077071
     71 C24         6.0410    4.1900    1.0750 c         1 MOL      0.486652
     72 O13         6.3250    5.2180    1.6900 o         1 MOL     -0.592817
     73 H30         6.2920    1.3920   -0.1090 hn        1 MOL      0.249673
     74 H31         8.0550    3.8260    0.2370 h1        1 MOL      0.072266
     75 H32         7.5320    2.7160    1.4660 h1        1 MOL      0.072266
     76 N7          4.8050    3.8540    0.6980 n         1 MOL     -0.233624
     77 C25         3.5360    4.5040    1.0430 c3        1 MOL      0.032937
     78 C26         2.4550    3.4220    1.2670 c         1 MOL      0.265842
     79 O14         2.5770    2.2660    0.8810 o         1 MOL     -0.389763
     80 C27         3.1910    5.3990   -0.1100 c3        1 MOL      0.006148
     81 C28         4.1900    6.6130   -0.3700 c3        1 MOL     -0.457205
     82 C29         3.5440    7.7150   -1.2060 c         1 MOL      0.768596
     83 N8          4.2920    8.7840   -1.4820 n         1 MOL     -0.866837
     84 O15         2.3890    7.7960   -1.5540 o         1 MOL     -0.559288
     85 H33         4.7550    2.9910    0.1690 hn        1 MOL      0.138973
     86 H34         3.6520    5.1240    1.9300 h1        1 MOL      0.039044
     87 H35         2.1590    5.7190    0.0140 hc        1 MOL      0.065950
     88 H36         3.1750    4.7550   -0.9980 hc        1 MOL      0.065950
     89 H37         5.1390    6.3510   -0.8410 hc        1 MOL      0.159281
     90 H38         4.4110    7.1210    0.5670 hc        1 MOL      0.159281
     91 H39         5.1890    8.9280   -1.0460 hn        1 MOL      0.359077
     92 H40         3.9370    9.4740   -2.1230 hn        1 MOL      0.359077
     93 N9          1.2750    3.8380    1.8340 n         1 MOL     -0.273617
     94 C30         0.1000    2.9360    1.9570 c3        1 MOL     -0.039072
     95 C31        -0.8730    3.1160    0.7440 c         1 MOL      0.553973
     96 O16        -1.2170    4.2760    0.4680 o         1 MOL     -0.594053
     97 C32        -0.6850    3.1820    3.2460 c3        1 MOL      0.236205
     98 C33        -1.8000    2.1570    3.6260 c3        1 MOL     -0.253134
     99 C34         0.2420    3.2700    4.4860 c3        1 MOL     -0.253134
    100 H41         1.1650    4.7980    2.0980 hn        1 MOL      0.250049
    101 H42         0.4960    1.9150    1.9070 h1        1 MOL      0.072321
    102 H43        -1.1950    4.1370    3.1160 hc        1 MOL     -0.023083
    103 H44        -1.4230    1.1520    3.8540 hc        1 MOL      0.044621
    104 H45        -2.3690    2.6770    4.3970 hc        1 MOL      0.044621
    105 H46        -2.6270    1.8860    2.9690 hc        1 MOL      0.044621
    106 H47         0.7740    2.3210    4.4540 hc        1 MOL      0.044621
    107 H48         0.9540    4.0870    4.3800 hc        1 MOL      0.044621
    108 H49        -0.2850    3.4040    5.4300 hc        1 MOL      0.044621
    109 N10        -1.3440    2.0420    0.0970 n         1 MOL     -0.241402
    110 C35        -2.4350    2.0540   -0.9200 c3        1 MOL     -0.044811
    111 C36        -3.8570    2.1550   -0.2430 c         1 MOL      0.399913
    112 O17        -3.9750    1.8060    0.9230 o         1 MOL     -0.468474
    113 C37        -2.2660    0.7830   -1.7780 c3        1 MOL     -0.124504
    114 C38        -3.2440    0.4890   -2.8760 c         1 MOL      0.613535
    115 N11        -3.1710   -0.7210   -3.3260 n         1 MOL     -0.667868
    116 O18        -4.0600    1.2930   -3.4190 o         1 MOL     -0.612400
    117 H50        -1.0340    1.1110    0.2820 hn        1 MOL      0.210924
    118 H51        -2.2970    2.9620   -1.5030 h1        1 MOL      0.089855
    119 H52        -2.3010   -0.0940   -1.1300 hc        1 MOL      0.082688
    120 H53        -1.2950    0.7830   -2.2730 hc        1 MOL      0.082688
    121 H54        -2.4650   -1.3560   -2.9700 hn        1 MOL      0.360546
    122 H55        -3.6690   -0.9450   -4.1770 hn        1 MOL      0.360546
    123 N12        -4.9250    2.5380   -0.9080 n         1 MOL     -0.328499
    124 C39        -6.3510    2.2890   -0.5320 c3        1 MOL      0.132108
    125 C40        -6.6760    0.8650   -0.0650 c         1 MOL      0.728666
    126 O19        -7.3910    0.6190    0.9150 o         1 MOL     -0.562402
    127 C41        -7.1560    2.6440   -1.7370 c3        1 MOL     -0.143408
    128 C42        -8.6160    2.4340   -1.2890 ca        1 MOL      0.018479
    129 C43        -9.0860    3.2540   -0.2430 ca        1 MOL     -0.173141
    130 C44        -9.3740    1.4460   -1.9730 ca        1 MOL     -0.173141
    131 C45       -10.4470    3.1230    0.1290 ca        1 MOL     -0.275886
    132 C46       -10.7070    1.2000   -1.4290 ca        1 MOL     -0.275886
    133 C47       -11.2220    2.0220   -0.3810 ca        1 MOL      0.355181
    134 O20       -12.4680    1.7760    0.1050 oh        1 MOL     -0.534176
    135 H56        -4.7190    3.1970   -1.6520 hn        1 MOL      0.246082
    136 H57        -6.6060    2.9560    0.2890 h1        1 MOL      0.010236
    137 H58        -7.0470    1.9010   -2.5260 hc        1 MOL      0.060096
    138 H59        -7.0260    3.6890   -2.0150 hc        1 MOL      0.060096
    139 H60        -8.4520    3.9720    0.2300 ha        1 MOL      0.163880
    140 H61        -8.9890    0.8900   -2.8110 ha        1 MOL      0.163880
    141 H62       -10.8580    3.8390    0.8250 ha        1 MOL      0.145433
    142 H63       -11.3200    0.4390   -1.8860 ha        1 MOL      0.145433
    143 H64       -12.9420    1.1310   -0.4200 ho        1 MOL      0.382755
    144 N13        -6.1040   -0.1210   -0.7470 n         1 MOL     -0.471314
    145 C48        -6.2490   -1.5690   -0.5430 c3        1 MOL      0.029355
    146 C49        -5.2400   -2.0570    0.5490 c         1 MOL      0.302339
    147 O21        -5.1840   -3.2540    0.8500 o         1 MOL     -0.484528
    148 C50        -6.0920   -2.3810   -1.8210 c3        1 MOL      0.303377
    149 C51        -6.8340   -1.8600   -3.0530 c3        1 MOL     -0.272378
    150 C52        -7.2940   -2.8750   -4.0650 c         1 MOL      0.706028
    151 O22        -7.7780   -4.0040   -3.6670 o         1 MOL     -0.729582
    152 O23        -7.2130   -2.7760   -5.3010 o         1 MOL     -0.729582
    153 H65        -5.4210    0.1930   -1.4200 hn        1 MOL      0.261410
    154 H66        -7.2840   -1.7450   -0.2180 h1        1 MOL      0.103415
    155 H67        -6.5380   -3.3540   -1.6230 hc        1 MOL     -0.071913
    156 H68        -5.0400   -2.4700   -2.0870 hc        1 MOL     -0.071913
    157 H69        -6.2670   -1.1010   -3.5850 hc        1 MOL      0.016908
    158 H70        -7.7930   -1.5340   -2.6340 hc        1 MOL      0.016908
    159 N14        -4.4530   -1.1590    1.2360 n         1 MOL     -0.169092
    160 C53        -3.6200   -1.3360    2.4220 c3        1 MOL     -0.012918
    161 C54        -4.1540   -0.5210    3.6400 c         1 MOL      0.386114
    162 O24        -3.7670   -0.8500    4.7890 o         1 MOL     -0.543229
    163 C55        -2.1710   -0.9330    2.0730 c3        1 MOL     -0.171674
    164 C56        -1.4040   -1.9600    1.2430 c3        1 MOL     -0.125934
    165 C57        -0.0240   -1.3890    0.8110 c         1 MOL      0.683730
    166 O25         0.8080   -2.0180    0.1090 o         1 MOL     -0.681852
    167 O26         0.2470   -0.1630    0.9610 o         1 MOL     -0.681852
    168 H71        -4.4800   -0.1990    0.9360 hn        1 MOL      0.059440
    169 H72        -3.6480   -2.3950    2.6650 h1        1 MOL      0.094179
    170 H73        -1.6440   -0.7250    2.9980 hc        1 MOL      0.128528
    171 H74        -2.1570    0.0340    1.5790 hc        1 MOL      0.128528
    172 H75        -1.8830   -2.2400    0.3020 hc        1 MOL      0.072221
    173 H76        -1.3320   -2.8530    1.8650 hc        1 MOL      0.072221
    174 N15        -5.0910    0.4200    3.3600 n         1 MOL      0.052989
    175 C58        -5.8330    1.0030    4.4090 c3        1 MOL     -0.157724
    176 H77        -6.2560    1.9490    4.0710 h1        1 MOL      0.057483
    177 H78        -6.6380    0.3300    4.7030 h1        1 MOL      0.057483
    178 H79        -5.1780    1.1820    5.2620 h1        1 MOL      0.057483
    179 H80        -5.3660    0.5620    2.3940 hn        1 MOL      0.021776
    180 Ca1         2.7140   -0.1280    0.0730 Ca        1 MOL      1.781637
    181 O27         2.4420    0.2040    2.6530 oh        1 MOL     -0.944634
    182 H81         1.6110   -0.0260    3.0770 ho        1 MOL      0.435725
    183 H82         2.8680    0.8060    3.2650 ho        1 MOL      0.435725
    184 O28         1.1390    0.9900   -1.8450 oh        1 MOL     -0.944634
    185 H83         1.7530    1.5610   -2.3090 ho        1 MOL      0.435725
    186 H84         0.9850    0.2660   -2.4530 ho        1 MOL      0.435725
    187 O29         5.4260    0.1310    0.9120 oh        1 MOL     -0.944634
    188 H85         5.5930    0.5890    1.7310 ho        1 MOL      0.435725
    189 H86         5.6060   -0.7890    1.1240 ho        1 MOL      0.435725
@<TRIPOS>BOND
     1    1    2 1   
     2    1    4 1   
     3    1    5 1   
     4    1    6 1   
     5    2    3 2   
     6    2    7 1   
     7    7    8 1   
     8    7   15 1   
     9    8    9 1   
    10    8   11 1   
    11    8   16 1   
    12    9   10 2   
    13    9   19 1   
    14   11   12 1   
    15   11   17 1   
    16   11   18 1   
    17   12   13 1   
    18   12   14 1   
    19   19   20 1   
    20   19   27 1   
    21   20   21 1   
    22   20   23 1   
    23   20   28 1   
    24   21   22 2   
    25   21   38 1   
    26   23   24 1   
    27   23   25 1   
    28   23   29 1   
    29   24   26 1   
    30   24   30 1   
    31   24   31 1   
    32   25   32 1   
    33   25   33 1   
    34   25   34 1   
    35   26   35 1   
    36   26   36 1   
    37   26   37 1   
    38   38   39 1   
    39   38   46 1   
    40   39   40 1   
    41   39   42 1   
    42   39   47 1   
    43   40   41 2   
    44   40   50 1   
    45   42   43 1   
    46   42   48 1   
    47   42   49 1   
    48   43   44 1   
    49   43   45 1   
    50   50   51 1   
    51   50   54 1   
    52   51   52 1   
    53   51   55 1   
    54   51   56 1   
    55   52   53 2   
    56   52   57 1   
    57   57   58 1   
    58   57   65 1   
    59   58   59 1   
    60   58   61 1   
    61   58   66 1   
    62   59   60 2   
    63   59   69 1   
    64   61   62 1   
    65   61   67 1   
    66   61   68 1   
    67   62   63 1   
    68   62   64 1   
    69   69   70 1   
    70   69   73 1   
    71   70   71 1   
    72   70   74 1   
    73   70   75 1   
    74   71   72 2   
    75   71   76 1   
    76   76   77 1   
    77   76   85 1   
    78   77   78 1   
    79   77   80 1   
    80   77   86 1   
    81   78   79 2   
    82   78   93 1   
    83   80   81 1   
    84   80   87 1   
    85   80   88 1   
    86   81   82 1   
    87   81   89 1   
    88   81   90 1   
    89   82   83 1   
    90   82   84 2   
    91   83   91 1   
    92   83   92 1   
    93   93   94 1   
    94   93  100 1   
    95   94   95 1   
    96   94   97 1   
    97   94  101 1   
    98   95   96 2   
    99   95  109 1   
   100   97   98 1   
   101   97   99 1   
   102   97  102 1   
   103   98  103 1   
   104   98  104 1   
   105   98  105 1   
   106   99  106 1   
   107   99  107 1   
   108   99  108 1   
   109  109  110 1   
   110  109  117 1   
   111  110  111 1   
   112  110  113 1   
   113  110  118 1   
   114  111  112 2   
   115  111  123 1   
   116  113  114 1   
   117  113  119 1   
   118  113  120 1   
   119  114  115 1   
   120  114  116 2   
   121  115  121 1   
   122  115  122 1   
   123  123  124 1   
   124  123  135 1   
   125  124  125 1   
   126  124  127 1   
   127  124  136 1   
   128  125  126 2   
   129  125  144 1   
   130  127  128 1   
   131  127  137 1   
   132  127  138 1   
   133  128  129 ar  
   134  128  130 ar  
   135  129  131 ar  
   136  129  139 1   
   137  130  132 ar  
   138  130  140 1   
   139  131  133 ar  
   140  131  141 1   
   141  132  133 ar  
   142  132  142 1   
   143  133  134 1   
   144  134  143 1   
   145  144  145 1   
   146  144  153 1   
   147  145  146 1   
   148  145  148 1   
   149  145  154 1   
   150  146  147 2   
   151  146  159 1   
   152  148  149 1   
   153  148  155 1   
   154  148  156 1   
   155  149  150 1   
   156  149  157 1   
   157  149  158 1   
   158  150  151 1   
   159  150  152 1   
   160  159  160 1   
   161  159  168 1   
   162  160  161 1   
   163  160  163 1   
   164  160  169 1   
   165  161  162 2   
   166  161  174 1   
   167  163  164 1   
   168  163  170 1   
   169  163  171 1   
   170  164  165 1   
   171  164  172 1   
   172  164  173 1   
   173  165  166 1   
   174  165  167 1   
   175  174  175 1   
   176  174  179 1   
   177  175  176 1   
   178  175  177 1   
   179  175  178 1   
   180  181  182 1   
   181  181  183 1   
   182  184  185 1   
   183  184  186 1   
   184  187  188 1   
   185  187  189 1   
@<TRIPOS>SUBSTRUCTURE
     1 MOL         1 TEMP              0 ****  ****    0 ROOT
