@<TRIPOS>MOLECULE
MOL
  179   176     1     0     0
SMALL
resp


@<TRIPOS>ATOM
      1 C1         -1.2470   -3.9470    5.3520 c3        1 MOL     -0.320231
      2 C2         -0.8580   -3.1340    4.1000 c         1 MOL      0.650843
      3 O1         -1.6350   -3.0950    3.1130 o         1 MOL     -0.588993
      4 H1         -1.9310   -3.3620    5.9670 hc        1 MOL      0.086225
      5 H2         -1.7360   -4.8730    5.0470 hc        1 MOL      0.086225
      6 H3         -0.3510   -4.1810    5.9270 hc        1 MOL      0.086225
      7 N1          0.3940   -2.7080    4.0270 n         1 MOL     -0.499548
      8 C3          1.0480   -2.4680    2.7450 c3        1 MOL      0.002612
      9 C4          1.4510   -3.7160    2.0250 c         1 MOL      0.683710
     10 O2          2.3420   -4.4390    2.5030 o         1 MOL     -0.567330
     11 C5          2.1960   -1.5260    3.0860 c3        1 MOL     -0.234943
     12 C6          3.0210   -1.0330    1.8490 c         1 MOL      0.779969
     13 O3          2.5680   -1.3540    0.6930 o         1 MOL     -0.716153
     14 O4          4.1040   -0.3760    2.0560 o         1 MOL     -0.716153
     15 H4          0.9390   -2.5350    4.8550 hn        1 MOL      0.323839
     16 H5          0.4120   -1.9010    2.0660 h1        1 MOL     -0.155732
     17 H6          2.8910   -2.0320    3.7630 hc        1 MOL      0.070722
     18 H7          1.8200   -0.6680    3.6360 hc        1 MOL      0.070722
     19 N2          0.7910   -4.0380    0.8950 n         1 MOL     -0.394561
     20 C7          0.9310   -5.3010    0.1020 c3        1 MOL     -0.271272
     21 C8          2.2710   -5.5490   -0.5450 c         1 MOL      0.619423
     22 O5          2.6960   -6.7340   -0.5800 o         1 MOL     -0.558896
     23 C9         -0.0590   -5.2180   -1.0500 c3        1 MOL      0.154728
     24 C10        -1.4250   -5.5410   -0.5320 c3        1 MOL      0.021766
     25 C11        -2.3680   -5.8320   -1.7230 c3        1 MOL     -0.134208
     26 C12        -3.8290   -5.6170   -1.3090 c3        1 MOL      0.256629
     27 N3         -4.3100   -6.5140   -0.2430 n4        1 MOL     -0.470869
     28 H8          0.1190   -3.3530    0.5710 hn        1 MOL      0.444811
     29 H9          0.7620   -6.2210    0.6780 h1        1 MOL      0.131051
     30 H10         0.1870   -5.9270   -1.8390 hc        1 MOL     -0.022976
     31 H11        -0.0400   -4.2490   -1.5560 hc        1 MOL     -0.022976
     32 H12        -1.7670   -4.6820    0.0490 hc        1 MOL     -0.014034
     33 H13        -1.3150   -6.4690    0.0320 hc        1 MOL     -0.014034
     34 H14        -2.1400   -6.8460   -2.0360 hc        1 MOL      0.060914
     35 H15        -2.1410   -5.1400   -2.5360 hc        1 MOL      0.060914
     36 H16        -4.4260   -5.8660   -2.1920 hx        1 MOL      0.007720
     37 H17        -4.0610   -4.5630   -1.1410 hx        1 MOL      0.007720
     38 H18        -3.8500   -7.4060   -0.1770 hn        1 MOL      0.354405
     39 H19        -4.1790   -5.9980    0.6230 hn        1 MOL      0.354405
     40 H20        -5.3100   -6.6200   -0.2870 hn        1 MOL      0.354405
     41 N4          2.9710   -4.4420   -0.9590 n         1 MOL     -0.277804
     42 C13         4.3020   -4.5460   -1.6990 c3        1 MOL     -0.288012
     43 C14         5.4590   -3.8830   -0.9800 c         1 MOL      0.571912
     44 O6          6.5370   -3.7540   -1.5100 o         1 MOL     -0.543095
     45 C15         4.2250   -4.0290   -3.1790 c3        1 MOL     -0.011820
     46 C16         3.4440   -2.7400   -3.4040 c         1 MOL      0.694626
     47 O7          3.1390   -1.9040   -2.4980 o         1 MOL     -0.728037
     48 O8          2.9680   -2.7250   -4.5550 o         1 MOL     -0.728037
     49 H21         2.7130   -3.5240   -0.6340 hn        1 MOL      0.135788
     50 H22         4.6010   -5.5910   -1.7730 h1        1 MOL      0.159236
     51 H23         3.8140   -4.8420   -3.7580 hc        1 MOL      0.046746
     52 H24         5.2340   -3.8150   -3.5490 hc        1 MOL      0.046746
     53 N5          5.1850   -3.4720    0.2360 n         1 MOL     -0.281031
     54 C17         6.2380   -2.8090    1.1210 c3        1 MOL     -0.154286
     55 C18         6.7950   -1.4860    0.6710 c         1 MOL      0.547572
     56 O9          7.9430   -1.1730    0.9320 o         1 MOL     -0.581761
     57 H25         4.2060   -3.5200    0.4960 hn        1 MOL      0.214901
     58 H26         7.0620   -3.4760    1.3750 h1        1 MOL      0.106907
     59 H27         5.7040   -2.4950    2.0180 h1        1 MOL      0.106907
     60 N6          6.1500   -0.7310   -0.2250 n         1 MOL     -0.151484
     61 C19         6.7380    0.5230   -0.7860 c3        1 MOL     -0.106400
     62 C20         6.5520    1.7290    0.1220 c         1 MOL      0.287740
     63 O10         6.9870    2.8020   -0.2940 o         1 MOL     -0.436522
     64 C21         6.1420    0.7320   -2.2660 c3        1 MOL     -0.171336
     65 C22         4.6600    1.2080   -2.3580 c         1 MOL      0.688129
     66 N7          4.2730    1.8690   -3.3550 n         1 MOL     -0.762663
     67 O11         3.9730    0.9710   -1.3820 o         1 MOL     -0.649157
     68 H28         5.1950   -0.9530   -0.4810 hn        1 MOL      0.155816
     69 H29         7.8190    0.3880   -0.9340 h1        1 MOL      0.155446
     70 H30         6.3170   -0.1730   -2.8480 hc        1 MOL      0.072551
     71 H31         6.7230    1.5330   -2.7030 hc        1 MOL      0.072551
     72 H32         4.8920    1.8590   -4.1510 hn        1 MOL      0.369653
     73 H33         3.4230    2.4240   -3.3180 hn        1 MOL      0.369653
     74 N8          5.8950    1.6180    1.3070 n         1 MOL     -0.115248
     75 C23         5.6700    2.6620    2.2670 c3        1 MOL     -0.197004
     76 C24         4.2690    3.3790    2.1740 c         1 MOL      0.562871
     77 O12         4.0080    4.3120    2.9300 o         1 MOL     -0.566139
     78 H34         5.6710    0.6590    1.5410 hn        1 MOL      0.252668
     79 H35         6.4410    3.4330    2.2560 h1        1 MOL      0.114139
     80 H36         5.8970    2.1660    3.2160 h1        1 MOL      0.114139
     81 N9          3.3300    2.9390    1.2730 n         1 MOL     -0.191813
     82 C25         2.0740    3.5630    0.9160 c3        1 MOL      0.447423
     83 C26         0.8160    2.6260    0.8130 c         1 MOL      0.153706
     84 O13         0.9800    1.5480    0.3490 o         1 MOL     -0.428621
     85 C27         2.1280    4.5400   -0.3470 c3        1 MOL      0.049781
     86 C28         3.3530    5.3740   -0.3960 ca        1 MOL     -0.067563
     87 C29         4.5510    5.0590   -1.0960 ca        1 MOL     -0.126942
     88 C30         3.3530    6.6780    0.2400 ca        1 MOL     -0.126942
     89 C31         5.7410    5.8560   -1.0670 ca        1 MOL     -0.303842
     90 C32         4.4390    7.5980    0.1330 ca        1 MOL     -0.303842
     91 C33         5.6530    7.1390   -0.4610 ca        1 MOL      0.405379
     92 O14         6.7720    7.9520   -0.5240 oh        1 MOL     -0.504828
     93 H37         3.4300    1.9930    0.9440 hn        1 MOL      0.013040
     94 H38         1.8410    4.2280    1.7450 h1        1 MOL     -0.072266
     95 H39         1.3780    5.3210   -0.2340 hc        1 MOL     -0.029980
     96 H40         1.9440    3.9630   -1.2530 hc        1 MOL     -0.029980
     97 H41         4.5740    4.1460   -1.6780 ha        1 MOL      0.131287
     98 H42         2.4580    7.0570    0.7140 ha        1 MOL      0.131287
     99 H43         6.6170    5.5000   -1.5870 ha        1 MOL      0.155154
    100 H44         4.3120    8.6230    0.4610 ha        1 MOL      0.155154
    101 H45         6.6420    8.8720   -0.2820 ho        1 MOL      0.362529
    102 N10        -0.3430    3.1440    1.1420 n         1 MOL     -0.410714
    103 C34        -1.6460    2.4440    1.1130 c3        1 MOL     -0.186563
    104 C35        -2.7730    3.3790    0.6490 c         1 MOL      0.542910
    105 O15        -2.8650    4.5510    1.1920 o         1 MOL     -0.549640
    106 C36        -1.9940    1.8530    2.5240 c3        1 MOL      0.050626
    107 C37        -0.9640    0.7710    2.9200 c3        1 MOL      0.197212
    108 C38        -3.3980    1.2260    2.6380 c3        1 MOL     -0.333445
    109 C39        -1.1520    0.2740    4.3910 c3        1 MOL     -0.550933
    110 H46        -0.3230    4.0580    1.5940 hn        1 MOL      0.325123
    111 H47        -1.5710    1.6730    0.3480 h1        1 MOL      0.277623
    112 H48        -1.9740    2.7270    3.1850 hc        1 MOL      0.034708
    113 H49         0.0090    1.2470    2.8460 hc        1 MOL      0.060456
    114 H50        -0.9970   -0.0880    2.2490 hc        1 MOL      0.060456
    115 H51        -3.4490    0.3460    1.9910 hc        1 MOL      0.094310
    116 H52        -3.5640    0.7950    3.6250 hc        1 MOL      0.094310
    117 H53        -4.1640    1.9370    2.3430 hc        1 MOL      0.094310
    118 H54        -1.9390   -0.4850    4.4250 hc        1 MOL      0.135319
    119 H55        -0.2580   -0.2300    4.7330 hc        1 MOL      0.135319
    120 H56        -1.2840    1.1200    5.0600 hc        1 MOL      0.135319
    121 N11        -3.3720    3.0820   -0.4380 n         1 MOL     -0.305683
    122 C40        -4.5700    3.6700   -1.0180 c3        1 MOL      0.010064
    123 C41        -5.8740    3.1880   -0.2440 c         1 MOL      0.313821
    124 O16        -5.8470    2.1300    0.3710 o         1 MOL     -0.233156
    125 C42        -4.6580    3.2620   -2.5720 c3        1 MOL     -0.027367
    126 O17        -4.9130    1.9020   -2.7090 oh        1 MOL     -0.484749
    127 H57        -3.2150    2.1090   -0.6540 hn        1 MOL      0.148043
    128 H58        -4.4400    4.7470   -1.0340 h1        1 MOL      0.082105
    129 H59        -3.7130    3.5460   -3.0280 h1        1 MOL      0.091877
    130 H60        -5.4600    3.8200   -3.0580 h1        1 MOL      0.091877
    131 H61        -4.0530    1.4730   -2.7070 ho        1 MOL      0.410596
    132 N12        -6.9740    3.9070   -0.3670 n         1 MOL     -0.334798
    133 C43        -8.2720    3.4920    0.0700 c3        1 MOL      0.042012
    134 C44        -8.6430    2.0350   -0.4520 c         1 MOL      0.543619
    135 O18        -9.3170    1.4110    0.3380 o         1 MOL     -0.501889
    136 C45        -9.3540    4.4760   -0.3200 c3        1 MOL     -0.298144
    137 H62        -6.9030    4.7540   -0.9160 hn        1 MOL      0.268583
    138 H63        -8.2600    3.5800    1.1600 h1        1 MOL      0.116149
    139 H64        -9.4430    4.4030   -1.4040 hc        1 MOL      0.099102
    140 H65       -10.2780    4.3390    0.2480 hc        1 MOL      0.099102
    141 H66        -8.9880    5.4570   -0.0270 hc        1 MOL      0.099102
    142 N13        -8.2080    1.5410   -1.6590 n         1 MOL     -0.440561
    143 C46        -8.3300    0.2060   -2.2230 c3        1 MOL      0.098072
    144 C47        -7.4860   -0.7910   -1.4180 c         1 MOL      0.379593
    145 O19        -7.9030   -1.9510   -1.1220 o         1 MOL     -0.535227
    146 C48        -8.0530    0.2300   -3.7330 c3        1 MOL     -0.268562
    147 H67        -7.5860    2.1930   -2.1340 hn        1 MOL      0.307049
    148 H68        -9.3720   -0.1200   -2.1750 h1        1 MOL      0.102450
    149 H69        -8.7270    0.8880   -4.2670 hc        1 MOL      0.085449
    150 H70        -7.0450    0.5400   -4.0140 hc        1 MOL      0.085449
    151 H71        -8.0530   -0.7680   -4.1730 hc        1 MOL      0.085449
    152 N14        -6.2250   -0.4520   -1.1540 n         1 MOL     -0.015058
    153 C49        -5.3410   -1.2700   -0.3080 c3        1 MOL     -0.213317
    154 C50        -5.8040   -1.3030    1.1160 c         1 MOL      0.495628
    155 O20        -5.5740   -2.2090    1.8510 o         1 MOL     -0.561377
    156 C51        -3.9720   -0.7630   -0.6120 c3        1 MOL      0.098044
    157 C52        -2.7680   -1.5570   -0.0400 c3        1 MOL     -0.354654
    158 C53        -1.3220   -1.1170   -0.4530 c         1 MOL      0.749285
    159 O21        -0.3100   -1.7830   -0.2090 o         1 MOL     -0.733043
    160 O22        -1.1260   -0.0230   -0.9900 o         1 MOL     -0.733043
    161 H72        -5.9080    0.5060   -1.2830 hn        1 MOL     -0.099566
    162 H73        -5.5120   -2.2550   -0.7380 h1        1 MOL      0.116957
    163 H74        -3.9180    0.2720   -0.2660 hc        1 MOL      0.009040
    164 H75        -3.8330   -0.6830   -1.6900 hc        1 MOL      0.009040
    165 H76        -2.8140   -2.5630   -0.4590 hc        1 MOL      0.118121
    166 H77        -2.9520   -1.5840    1.0280 hc        1 MOL      0.118121
    167 N15        -6.4620   -0.2460    1.6160 n         1 MOL      0.055640
    168 C54        -7.0460   -0.1290    2.9440 c3        1 MOL     -0.222095
    169 H78        -7.2110    0.9230    3.1780 h1        1 MOL      0.089972
    170 H79        -7.9990   -0.6590    2.9710 h1        1 MOL      0.089972
    171 H80        -6.3680   -0.5620    3.6800 h1        1 MOL      0.089972
    172 H81        -6.5260    0.5330    0.9720 hn        1 MOL     -0.048358
    173 Ca1         1.4860   -0.3350   -1.4130 Ca        1 MOL      1.815221
    174 O23         0.5870   -2.0660   -3.1390 oh        1 MOL     -0.953990
    175 H82         1.4010   -2.4290   -3.4890 ho        1 MOL      0.453821
    176 H83        -0.1070   -2.5740   -3.5630 ho        1 MOL      0.453821
    177 O24         0.8170    1.8310   -2.8840 oh        1 MOL     -0.953990
    178 H84         0.3250    2.6020   -2.6030 ho        1 MOL      0.453821
    179 H85         0.9480    1.9510   -3.8230 ho        1 MOL      0.453821
@<TRIPOS>BOND
     1    1    2 1   
     2    1    4 1   
     3    1    5 1   
     4    1    6 1   
     5    2    3 2   
     6    2    7 1   
     7    7    8 1   
     8    7   15 1   
     9    8    9 1   
    10    8   11 1   
    11    8   16 1   
    12    9   10 2   
    13    9   19 1   
    14   11   12 1   
    15   11   17 1   
    16   11   18 1   
    17   12   13 1   
    18   12   14 1   
    19   19   20 1   
    20   19   28 1   
    21   20   21 1   
    22   20   23 1   
    23   20   29 1   
    24   21   22 2   
    25   21   41 1   
    26   23   24 1   
    27   23   30 1   
    28   23   31 1   
    29   24   25 1   
    30   24   32 1   
    31   24   33 1   
    32   25   26 1   
    33   25   34 1   
    34   25   35 1   
    35   26   27 1   
    36   26   36 1   
    37   26   37 1   
    38   27   38 1   
    39   27   39 1   
    40   27   40 1   
    41   41   42 1   
    42   41   49 1   
    43   42   43 1   
    44   42   45 1   
    45   42   50 1   
    46   43   44 2   
    47   43   53 1   
    48   45   46 1   
    49   45   51 1   
    50   45   52 1   
    51   46   47 1   
    52   46   48 1   
    53   53   54 1   
    54   53   57 1   
    55   54   55 1   
    56   54   58 1   
    57   54   59 1   
    58   55   56 2   
    59   55   60 1   
    60   60   61 1   
    61   60   68 1   
    62   61   62 1   
    63   61   64 1   
    64   61   69 1   
    65   62   63 2   
    66   62   74 1   
    67   64   65 1   
    68   64   70 1   
    69   64   71 1   
    70   65   66 1   
    71   65   67 2   
    72   66   72 1   
    73   66   73 1   
    74   74   75 1   
    75   74   78 1   
    76   75   76 1   
    77   75   79 1   
    78   75   80 1   
    79   76   77 2   
    80   76   81 1   
    81   81   82 1   
    82   81   93 1   
    83   82   83 1   
    84   82   85 1   
    85   82   94 1   
    86   83   84 2   
    87   83  102 1   
    88   85   86 1   
    89   85   95 1   
    90   85   96 1   
    91   86   87 ar  
    92   86   88 ar  
    93   87   89 ar  
    94   87   97 1   
    95   88   90 ar  
    96   88   98 1   
    97   89   91 ar  
    98   89   99 1   
    99   90   91 ar  
   100   90  100 1   
   101   91   92 1   
   102   92  101 1   
   103  102  103 1   
   104  102  110 1   
   105  103  104 1   
   106  103  106 1   
   107  103  111 1   
   108  104  105 2   
   109  104  121 1   
   110  106  107 1   
   111  106  108 1   
   112  106  112 1   
   113  107  109 1   
   114  107  113 1   
   115  107  114 1   
   116  108  115 1   
   117  108  116 1   
   118  108  117 1   
   119  109  118 1   
   120  109  119 1   
   121  109  120 1   
   122  121  122 1   
   123  121  127 1   
   124  122  123 1   
   125  122  125 1   
   126  122  128 1   
   127  123  124 2   
   128  123  132 1   
   129  125  126 1   
   130  125  129 1   
   131  125  130 1   
   132  126  131 1   
   133  132  133 1   
   134  132  137 1   
   135  133  134 1   
   136  133  136 1   
   137  133  138 1   
   138  134  135 2   
   139  134  142 1   
   140  136  139 1   
   141  136  140 1   
   142  136  141 1   
   143  142  143 1   
   144  142  147 1   
   145  143  144 1   
   146  143  146 1   
   147  143  148 1   
   148  144  145 2   
   149  144  152 1   
   150  146  149 1   
   151  146  150 1   
   152  146  151 1   
   153  152  153 1   
   154  152  161 1   
   155  153  154 1   
   156  153  156 1   
   157  153  162 1   
   158  154  155 2   
   159  154  167 1   
   160  156  157 1   
   161  156  163 1   
   162  156  164 1   
   163  157  158 1   
   164  157  165 1   
   165  157  166 1   
   166  158  159 1   
   167  158  160 1   
   168  167  168 1   
   169  167  172 1   
   170  168  169 1   
   171  168  170 1   
   172  168  171 1   
   173  174  175 1   
   174  174  176 1   
   175  177  178 1   
   176  177  179 1   
@<TRIPOS>SUBSTRUCTURE
     1 MOL         1 TEMP              0 ****  ****    0 ROOT
