@<TRIPOS>MOLECULE
MOL
  175   173     1     0     0
SMALL
resp


@<TRIPOS>ATOM
      1 C1          0.0550    3.3710    5.6920 c3        1 MOL     -0.316805
      2 C2         -0.5560    3.2250    4.2530 c         1 MOL      0.745219
      3 O1          0.1830    3.2960    3.2780 o         1 MOL     -0.551175
      4 H1         -0.1240    4.3810    6.0610 hc        1 MOL      0.071930
      5 H2         -0.4170    2.6520    6.3620 hc        1 MOL      0.071930
      6 H3          1.1280    3.1830    5.6530 hc        1 MOL      0.071930
      7 N1         -1.8760    3.0590    4.0720 n         1 MOL     -0.722433
      8 C3         -2.5730    3.0350    2.7340 c3        1 MOL      0.314965
      9 C4         -2.6400    4.3380    1.9800 c         1 MOL      0.727977
     10 O2         -2.7110    5.3870    2.6050 o         1 MOL     -0.618158
     11 C5         -3.9900    2.4940    3.0630 c3        1 MOL     -0.363997
     12 C6         -4.6710    2.0500    1.7560 c         1 MOL      0.661359
     13 O3         -3.9070    1.6060    0.8520 o         1 MOL     -0.647809
     14 O4         -5.8950    2.2100    1.5580 o         1 MOL     -0.647809
     15 H4         -2.4700    2.8970    4.8770 hn        1 MOL      0.327007
     16 H5         -1.9660    2.4050    2.0820 h1        1 MOL     -0.094815
     17 H6         -4.5520    3.3740    3.3580 hc        1 MOL      0.066915
     18 H7         -3.9930    1.6600    3.7590 hc        1 MOL      0.066915
     19 N2         -2.6020    4.2300    0.6710 n         1 MOL     -0.500897
     20 C7         -2.7790    5.4610   -0.1260 c3        1 MOL      0.135930
     21 C8         -3.6710    5.2730   -1.3670 c         1 MOL      0.463840
     22 O5         -4.1620    6.2240   -1.9420 o         1 MOL     -0.571918
     23 C9         -1.3590    5.9130   -0.5460 c3        1 MOL     -0.246281
     24 H8         -2.5750    3.3380    0.1860 hn        1 MOL      0.310123
     25 H9         -3.2530    6.2460    0.4540 h1        1 MOL      0.049311
     26 H10        -1.3880    6.8170   -1.1590 hc        1 MOL      0.068171
     27 H11        -0.7750    6.1390    0.3390 hc        1 MOL      0.068171
     28 H12        -0.8440    5.0840   -1.0260 hc        1 MOL      0.068171
     29 N3         -3.8830    4.0080   -1.6830 n         1 MOL     -0.213176
     30 C10        -4.5490    3.5510   -2.9520 c3        1 MOL      0.121461
     31 C11        -5.9260    2.9010   -2.8060 c         1 MOL      0.328916
     32 O6         -6.6870    2.7830   -3.7710 o         1 MOL     -0.530783
     33 C12        -3.5550    2.5310   -3.5580 c3        1 MOL     -0.383750
     34 C13        -2.9370    1.5570   -2.5410 c         1 MOL      0.815055
     35 O7         -1.7370    1.3190   -2.3810 o         1 MOL     -0.733618
     36 O8         -3.7080    0.8660   -1.8180 o         1 MOL     -0.733618
     37 H13        -3.6410    3.2850   -1.0220 hn        1 MOL      0.140331
     38 H14        -4.6810    4.3930   -3.6370 h1        1 MOL      0.084875
     39 H15        -2.7330    3.0760   -4.0320 hc        1 MOL      0.101547
     40 H16        -4.1460    1.9400   -4.2590 hc        1 MOL      0.101547
     41 N4         -6.2580    2.3200   -1.6110 n         1 MOL     -0.147971
     42 C14        -7.3910    1.4820   -1.3050 c3        1 MOL     -0.067323
     43 C15        -7.2950    0.0250   -1.7360 c         1 MOL      0.486678
     44 O9         -8.3040   -0.6480   -1.8820 o         1 MOL     -0.622728
     45 H17        -5.5710    2.4500   -0.8950 hn        1 MOL      0.104588
     46 H18        -8.3080    1.8370   -1.7690 h1        1 MOL      0.077715
     47 H19        -7.7150    1.4440   -0.2690 h1        1 MOL      0.077715
     48 N5         -6.1080   -0.5670   -1.9960 n         1 MOL     -0.080052
     49 C16        -5.9440   -1.9320   -2.5530 c3        1 MOL     -0.100205
     50 C17        -6.0960   -3.0770   -1.4800 c         1 MOL      0.471536
     51 O10        -6.2340   -4.2150   -1.8020 o         1 MOL     -0.521995
     52 C18        -4.7270   -1.9750   -3.4440 c3        1 MOL     -0.180181
     53 C19        -3.4610   -2.1430   -2.6320 c         1 MOL      0.627212
     54 N6         -2.3590   -2.3810   -3.3130 n         1 MOL     -0.585046
     55 O11        -3.4020   -1.8770   -1.4160 o         1 MOL     -0.643847
     56 H20        -5.3000    0.0390   -1.9200 hn        1 MOL      0.112070
     57 H21        -6.8690   -1.9400   -3.1260 h1        1 MOL      0.102384
     58 H22        -4.5660   -1.1510   -4.1430 hc        1 MOL      0.073684
     59 H23        -4.8410   -2.8630   -4.0770 hc        1 MOL      0.073684
     60 H24        -2.3680   -2.6740   -4.2760 hn        1 MOL      0.309789
     61 H25        -1.4920   -2.2800   -2.8020 hn        1 MOL      0.309789
     62 N7         -6.1920   -2.7290   -0.2130 n         1 MOL     -0.220018
     63 C20        -6.3880   -3.6190    0.9950 c3        1 MOL     -0.053754
     64 C21        -5.1870   -4.3830    1.5130 c         1 MOL      0.501805
     65 O12        -5.3530   -5.2920    2.3150 o         1 MOL     -0.584157
     66 H26        -6.1950   -1.7360   -0.0030 hn        1 MOL      0.195527
     67 H27        -7.1880   -4.3310    0.7840 h1        1 MOL      0.064762
     68 H28        -6.8020   -2.9880    1.7840 h1        1 MOL      0.064762
     69 N8         -3.9780   -4.0000    1.0350 n         1 MOL     -0.118990
     70 C22        -2.6560   -4.6390    1.2850 c3        1 MOL     -0.288763
     71 C23        -1.5450   -3.5640    1.3270 c         1 MOL      0.573257
     72 O13        -1.6320   -2.5200    0.6780 o         1 MOL     -0.451614
     73 C24        -2.2520   -5.4980    0.0400 c3        1 MOL      0.594077
     74 C25        -2.8880   -6.8810    0.3080 c3        1 MOL     -0.493612
     75 O14        -2.5980   -4.8880   -1.2250 oh        1 MOL     -0.617628
     76 H29        -4.0670   -3.1730    0.4640 hn        1 MOL      0.119067
     77 H30        -2.6550   -5.2030    2.2100 h1        1 MOL      0.121380
     78 H31        -1.1720   -5.6270    0.0370 h1        1 MOL     -0.052938
     79 H32        -2.0490   -4.1170   -1.3420 ho        1 MOL      0.336863
     80 H33        -2.5020   -7.6040   -0.4150 hc        1 MOL      0.118972
     81 H34        -2.6510   -7.2710    1.2980 hc        1 MOL      0.118972
     82 H35        -3.9750   -6.8430    0.2300 hc        1 MOL      0.118972
     83 N9         -0.4260   -3.9550    1.9200 n         1 MOL     -0.480213
     84 C26         0.8320   -3.1230    1.9300 c3        1 MOL     -0.054904
     85 C27         1.7190   -3.1730    0.6480 c         1 MOL      0.563859
     86 O15         2.0180   -4.2870    0.2140 o         1 MOL     -0.575544
     87 C28         1.6860   -3.2470    3.2270 c3        1 MOL      0.227363
     88 C29         0.8400   -2.8030    4.4280 c3        1 MOL      0.125872
     89 C30         2.8570   -2.2070    3.1130 c3        1 MOL     -0.238917
     90 C31         1.4140   -3.2510    5.7880 c3        1 MOL     -0.291631
     91 H36        -0.3740   -4.7730    2.5080 hn        1 MOL      0.264853
     92 H37         0.4080   -2.1100    1.9250 h1        1 MOL      0.037239
     93 H38         2.1060   -4.2520    3.2930 hc        1 MOL     -0.025615
     94 H39        -0.1700   -3.2130    4.4080 hc        1 MOL     -0.022239
     95 H40         0.7370   -1.7300    4.3240 hc        1 MOL     -0.022239
     96 H41         3.4590   -2.4100    4.0000 hc        1 MOL      0.029061
     97 H42         3.4150   -2.5950    2.2610 hc        1 MOL      0.029061
     98 H43         2.6310   -1.1420    3.0900 hc        1 MOL      0.029061
     99 H44         1.8150   -4.2630    5.7380 hc        1 MOL      0.059947
    100 H45         2.2360   -2.5920    6.0370 hc        1 MOL      0.059947
    101 H46         0.6560   -3.1430    6.5620 hc        1 MOL      0.059947
    102 N10         2.1140   -1.9880    0.1000 n         1 MOL     -0.386945
    103 C32         2.9460   -1.8650   -1.0660 c3        1 MOL      0.111963
    104 C33         4.3720   -1.2210   -0.7560 c         1 MOL      0.458090
    105 O16         4.6390   -0.8760    0.3990 o         1 MOL     -0.377558
    106 C34         2.1780   -1.0250   -2.0650 c3        1 MOL     -0.298224
    107 C35         0.7240   -1.3660   -2.3290 c         1 MOL      0.796985
    108 O17        -0.1840   -0.9250   -1.5770 o         1 MOL     -0.708693
    109 O18         0.3910   -2.0520   -3.3190 o         1 MOL     -0.708693
    110 H47         1.7920   -1.1630    0.5790 hn        1 MOL      0.377111
    111 H48         3.1590   -2.8280   -1.5310 h1        1 MOL      0.051358
    112 H49         2.7410   -0.9930   -2.9930 hc        1 MOL      0.054849
    113 H50         2.2400    0.0120   -1.7350 hc        1 MOL      0.054849
    114 N11         5.2730   -1.2630   -1.7980 n         1 MOL     -0.652661
    115 C36         6.7150   -0.8980   -1.6220 c3        1 MOL      0.412551
    116 C37         6.9770    0.5650   -1.2410 c         1 MOL      0.256582
    117 O19         7.6480    0.6980   -0.1730 o         1 MOL     -0.527514
    118 C38         7.5120   -1.2980   -2.8650 c3        1 MOL     -0.300639
    119 C39         8.9820   -1.4870   -2.6400 ca        1 MOL      0.077830
    120 C40         9.3850   -2.4300   -1.7070 ca        1 MOL     -0.087907
    121 C41         9.9420   -0.6490   -3.2740 ca        1 MOL     -0.087907
    122 C42        10.7740   -2.6810   -1.5990 ca        1 MOL     -0.196876
    123 C43        11.2800   -0.9270   -3.0640 ca        1 MOL     -0.196876
    124 C44        11.7450   -1.9020   -2.1970 ca        1 MOL     -0.022674
    125 H51         4.9560   -1.6210   -2.6860 hn        1 MOL      0.350652
    126 H52         7.1470   -1.4660   -0.7900 h1        1 MOL      0.059120
    127 H53         7.4960   -0.5500   -3.6610 hc        1 MOL      0.083328
    128 H54         7.0330   -2.1980   -3.2360 hc        1 MOL      0.083328
    129 H55         8.6960   -2.9920   -1.1020 ha        1 MOL      0.112000
    130 H56         9.6130    0.1410   -3.9410 ha        1 MOL      0.112000
    131 H57        11.0970   -3.3910   -0.8450 ha        1 MOL      0.112284
    132 H58        12.1110   -0.3680   -3.4760 ha        1 MOL      0.112284
    133 H59        12.7850   -2.0140   -1.9750 ha        1 MOL      0.095753
    134 N12         6.2240    1.6400   -1.6800 n         1 MOL      0.004992
    135 C45         6.2690    3.0340   -1.1530 c3        1 MOL     -0.107560
    136 C46         5.5630    3.1820    0.2020 c         1 MOL      0.472143
    137 O20         5.5170    4.2840    0.7190 o         1 MOL     -0.521930
    138 C47         5.8390    4.0090   -2.2480 c3        1 MOL     -0.039318
    139 C48         4.9790    3.1010   -3.1320 c3        1 MOL      0.030983
    140 C49         5.4310    1.6520   -2.8800 c3        1 MOL     -0.061671
    141 H60         7.2930    3.3560   -0.9430 h1        1 MOL      0.085846
    142 H61         5.3170    4.8560   -1.8260 hc        1 MOL      0.043292
    143 H62         6.6730    4.4050   -2.8230 hc        1 MOL      0.043292
    144 H63         3.9170    3.2440   -2.9310 hc        1 MOL      0.016478
    145 H64         5.1100    3.3760   -4.1800 hc        1 MOL      0.016478
    146 H65         4.5550    1.0120   -2.8240 h1        1 MOL      0.023453
    147 H66         6.0820    1.2730   -3.6650 h1        1 MOL      0.023453
    148 N13         4.8770    2.1300    0.7000 n         1 MOL     -0.183380
    149 C50         4.2640    2.0900    2.0320 c3        1 MOL     -0.025303
    150 C51         5.1240    1.4280    3.0740 c         1 MOL      0.408245
    151 O21         5.4960    1.9860    4.1410 o         1 MOL     -0.554098
    152 C52         2.9570    1.3390    1.9770 c3        1 MOL     -0.104212
    153 C53         1.9270    1.8500    0.9350 c3        1 MOL     -0.090759
    154 C54         0.6030    1.1510    0.9620 c         1 MOL      0.534958
    155 O22        -0.3990    1.7030    0.4470 o         1 MOL     -0.669152
    156 O23         0.3650    0.0040    1.3860 o         1 MOL     -0.669152
    157 H67         4.9170    1.2420    0.2160 hn        1 MOL      0.140184
    158 H68         4.0660    3.1180    2.3270 h1        1 MOL      0.091165
    159 H69         2.4170    1.3990    2.9170 hc        1 MOL      0.071924
    160 H70         3.1120    0.2980    1.7000 hc        1 MOL      0.071924
    161 H71         2.3630    1.7430   -0.0580 hc        1 MOL      0.074032
    162 H72         1.8160    2.9350    0.9610 hc        1 MOL      0.074032
    163 N14         5.6790    0.2750    2.7280 n         1 MOL     -0.060109
    164 C55         6.5340   -0.5030    3.6420 c3        1 MOL     -0.309125
    165 H73         6.1520   -0.4170    4.6590 h1        1 MOL      0.107514
    166 H74         6.5300   -1.5500    3.3410 h1        1 MOL      0.107514
    167 H75         7.5530   -0.1180    3.6030 h1        1 MOL      0.107514
    168 H76         5.5550   -0.0410    1.7710 hn        1 MOL      0.126770
    169 Ca1        -2.1140   -0.1380   -0.0480 Ca        1 MOL      1.784763
    170 O24        -1.8770    0.1020    2.7680 oh        1 MOL     -0.939042
    171 H77        -0.9930    0.3850    2.5270 ho        1 MOL      0.446813
    172 H78        -1.9100    0.2150    3.7190 ho        1 MOL      0.446813
    173 O25        -4.0490   -0.9520    1.8040 oh        1 MOL     -0.939042
    174 H79        -4.9200   -0.6320    2.0070 ho        1 MOL      0.446813
    175 H80        -3.4720   -0.5100    2.4280 ho        1 MOL      0.446813
@<TRIPOS>BOND
     1    1    2 1   
     2    1    4 1   
     3    1    5 1   
     4    1    6 1   
     5    2    3 2   
     6    2    7 1   
     7    7    8 1   
     8    7   15 1   
     9    8    9 1   
    10    8   11 1   
    11    8   16 1   
    12    9   10 2   
    13    9   19 1   
    14   11   12 1   
    15   11   17 1   
    16   11   18 1   
    17   12   13 1   
    18   12   14 1   
    19   19   20 1   
    20   19   24 1   
    21   20   21 1   
    22   20   23 1   
    23   20   25 1   
    24   21   22 2   
    25   21   29 1   
    26   23   26 1   
    27   23   27 1   
    28   23   28 1   
    29   29   30 1   
    30   29   37 1   
    31   30   31 1   
    32   30   33 1   
    33   30   38 1   
    34   31   32 2   
    35   31   41 1   
    36   33   34 1   
    37   33   39 1   
    38   33   40 1   
    39   34   35 1   
    40   34   36 1   
    41   41   42 1   
    42   41   45 1   
    43   42   43 1   
    44   42   46 1   
    45   42   47 1   
    46   43   44 2   
    47   43   48 1   
    48   48   49 1   
    49   48   56 1   
    50   49   50 1   
    51   49   52 1   
    52   49   57 1   
    53   50   51 2   
    54   50   62 1   
    55   52   53 1   
    56   52   58 1   
    57   52   59 1   
    58   53   54 1   
    59   53   55 2   
    60   54   60 1   
    61   54   61 1   
    62   62   63 1   
    63   62   66 1   
    64   63   64 1   
    65   63   67 1   
    66   63   68 1   
    67   64   65 2   
    68   64   69 1   
    69   69   70 1   
    70   69   76 1   
    71   70   71 1   
    72   70   73 1   
    73   70   77 1   
    74   71   72 2   
    75   71   83 1   
    76   73   74 1   
    77   73   75 1   
    78   73   78 1   
    79   74   80 1   
    80   74   81 1   
    81   74   82 1   
    82   75   79 1   
    83   83   84 1   
    84   83   91 1   
    85   84   85 1   
    86   84   87 1   
    87   84   92 1   
    88   85   86 2   
    89   85  102 1   
    90   87   88 1   
    91   87   89 1   
    92   87   93 1   
    93   88   90 1   
    94   88   94 1   
    95   88   95 1   
    96   89   96 1   
    97   89   97 1   
    98   89   98 1   
    99   90   99 1   
   100   90  100 1   
   101   90  101 1   
   102  102  103 1   
   103  102  110 1   
   104  103  104 1   
   105  103  106 1   
   106  103  111 1   
   107  104  105 2   
   108  104  114 1   
   109  106  107 1   
   110  106  112 1   
   111  106  113 1   
   112  107  108 1   
   113  107  109 1   
   114  114  115 1   
   115  114  125 1   
   116  115  116 1   
   117  115  118 1   
   118  115  126 1   
   119  116  117 2   
   120  116  134 1   
   121  118  119 1   
   122  118  127 1   
   123  118  128 1   
   124  119  120 ar  
   125  119  121 ar  
   126  120  122 ar  
   127  120  129 1   
   128  121  123 ar  
   129  121  130 1   
   130  122  124 ar  
   131  122  131 1   
   132  123  124 ar  
   133  123  132 1   
   134  124  133 1   
   135  134  135 1   
   136  134  140 1   
   137  135  136 1   
   138  135  138 1   
   139  135  141 1   
   140  136  137 2   
   141  136  148 1   
   142  138  139 1   
   143  138  142 1   
   144  138  143 1   
   145  139  140 1   
   146  139  144 1   
   147  139  145 1   
   148  140  146 1   
   149  140  147 1   
   150  148  149 1   
   151  148  157 1   
   152  149  150 1   
   153  149  152 1   
   154  149  158 1   
   155  150  151 2   
   156  150  163 1   
   157  152  153 1   
   158  152  159 1   
   159  152  160 1   
   160  153  154 1   
   161  153  161 1   
   162  153  162 1   
   163  154  155 1   
   164  154  156 1   
   165  163  164 1   
   166  163  168 1   
   167  164  165 1   
   168  164  166 1   
   169  164  167 1   
   170  170  171 1   
   171  170  172 1   
   172  173  174 1   
   173  173  175 1   
@<TRIPOS>SUBSTRUCTURE
     1 MOL         1 TEMP              0 ****  ****    0 ROOT
