@<TRIPOS>MOLECULE
MOL
  176   174     1     0     0
SMALL
resp


@<TRIPOS>ATOM
      1 C1          0.2950    4.5190   -4.6240 c3        1 MOL     -0.480433
      2 C2          0.6500    3.7450   -3.3050 c         1 MOL      0.682719
      3 O1          0.1180    4.0190   -2.2410 o         1 MOL     -0.538462
      4 H1          0.0780    5.5600   -4.3870 hc        1 MOL      0.122322
      5 H2          1.1400    4.4720   -5.3120 hc        1 MOL      0.122322
      6 H3         -0.5790    4.0630   -5.0900 hc        1 MOL      0.122322
      7 N1          1.6330    2.8360   -3.3540 n         1 MOL     -0.613731
      8 C3          2.2440    2.1640   -2.1990 c3        1 MOL      0.357285
      9 C4          3.3590    3.1180   -1.6660 c         1 MOL      0.383322
     10 O2          4.5710    2.9000   -1.7550 o         1 MOL     -0.453393
     11 C5          2.8360    0.7430   -2.5440 c3        1 MOL     -0.159928
     12 C6          3.4500    0.0340   -1.3350 c         1 MOL      0.678415
     13 O3          3.1920    0.5120   -0.1930 o         1 MOL     -0.688288
     14 O4          4.1810   -1.0010   -1.4480 o         1 MOL     -0.688288
     15 H4          2.0870    2.7720   -4.2510 hn        1 MOL      0.319744
     16 H5          1.5550    2.0280   -1.3700 h1        1 MOL     -0.044708
     17 H6          3.5800    0.9050   -3.3330 hc        1 MOL      0.029463
     18 H7          1.9980    0.1520   -2.9320 hc        1 MOL      0.029463
     19 N2          2.8520    4.2220   -1.0610 n         1 MOL     -0.413670
     20 C7          3.6290    5.3930   -0.5870 c3        1 MOL      0.032858
     21 C8          4.6550    5.0030    0.5090 c         1 MOL      0.471672
     22 O5          5.7460    5.5840    0.6950 o         1 MOL     -0.549367
     23 C9          2.7600    6.4610   -0.0100 c3        1 MOL     -0.328229
     24 C10         2.0530    7.1750   -1.1170 c3        1 MOL      0.257804
     25 C11         1.1340    8.3200   -0.5800 c3        1 MOL     -0.055488
     26 C12         0.8800    9.2940   -1.7110 c3        1 MOL      0.060567
     27 N3          0.3760   10.6260   -1.2680 n4        1 MOL     -0.368885
     28 H8          1.8530    4.3000   -1.0840 hn        1 MOL      0.348629
     29 H9          4.2250    5.8170   -1.3940 h1        1 MOL      0.079545
     30 H10         3.4350    7.1300    0.5100 hc        1 MOL      0.101045
     31 H11         2.0550    5.9640    0.6580 hc        1 MOL      0.101045
     32 H12         1.5000    6.5000   -1.7730 hc        1 MOL     -0.042817
     33 H13         2.8290    7.6580   -1.6980 hc        1 MOL     -0.042817
     34 H14         1.7150    8.8160    0.1920 hc        1 MOL      0.040099
     35 H15         0.2030    7.8480   -0.2620 hc        1 MOL      0.040099
     36 H16         0.1380    8.7280   -2.2840 hx        1 MOL      0.069779
     37 H17         1.7830    9.3770   -2.3130 hx        1 MOL      0.069779
     38 H18         0.1570   11.2330   -2.0530 hn        1 MOL      0.330102
     39 H19        -0.5560   10.5540   -0.8860 hn        1 MOL      0.330102
     40 H20         1.0170   11.1080   -0.6490 hn        1 MOL      0.330102
     41 N4          4.2890    3.9700    1.3060 n         1 MOL     -0.292180
     42 C13         5.1950    3.3750    2.3460 c3        1 MOL      0.002823
     43 C14         6.1780    2.3100    1.8320 c         1 MOL      0.421892
     44 O6          7.2100    2.0150    2.4450 o         1 MOL     -0.547900
     45 C15         4.3480    2.8080    3.5570 c3        1 MOL     -0.289036
     46 C16         3.2310    1.9240    3.0710 c         1 MOL      0.744010
     47 O7          3.2020    0.7060    3.3470 o         1 MOL     -0.726839
     48 O8          2.3740    2.3610    2.2920 o         1 MOL     -0.726839
     49 H21         3.4030    3.5350    1.0760 hn        1 MOL      0.251188
     50 H22         5.7970    4.2040    2.7250 h1        1 MOL      0.111329
     51 H23         3.9630    3.6430    4.1350 hc        1 MOL      0.087498
     52 H24         4.9530    2.2320    4.2640 hc        1 MOL      0.087498
     53 N5          5.9290    1.7450    0.6450 n         1 MOL      0.025303
     54 C17         6.7820    0.8660   -0.0610 c3        1 MOL     -0.191227
     55 C18         6.8240   -0.5670    0.4240 c         1 MOL      0.519281
     56 O9          7.8240   -1.2830    0.1400 o         1 MOL     -0.581988
     57 H25         5.1510    2.1560    0.1380 hn        1 MOL      0.036685
     58 H26         7.8020    1.2450   -0.0840 h1        1 MOL      0.106006
     59 H27         6.4640    0.8600   -1.1060 h1        1 MOL      0.106006
     60 N6          5.7550   -1.0870    1.0730 n         1 MOL     -0.231857
     61 C19         5.7760   -2.4160    1.6420 c3        1 MOL     -0.004301
     62 C20         5.4270   -3.5740    0.6860 c         1 MOL      0.267572
     63 O10         5.3810   -4.7350    1.0930 o         1 MOL     -0.487004
     64 C21         4.8680   -2.4140    2.9170 c3        1 MOL     -0.113327
     65 C22         3.3840   -2.7440    2.6430 c         1 MOL      0.517011
     66 N7          2.8810   -3.7840    3.2910 n         1 MOL     -0.582146
     67 O11         2.7440   -2.0920    1.8330 o         1 MOL     -0.663681
     68 H28         4.8840   -0.5890    1.0780 hn        1 MOL      0.116325
     69 H29         6.7920   -2.5420    2.0030 h1        1 MOL      0.139599
     70 H30         4.9290   -1.4840    3.4880 hc        1 MOL      0.061088
     71 H31         5.3560   -3.1560    3.5360 hc        1 MOL      0.061088
     72 H32         3.4950   -4.3960    3.8120 hn        1 MOL      0.323919
     73 H33         1.8860   -3.8420    3.4080 hn        1 MOL      0.323919
     74 N8          5.2090   -3.3170   -0.6060 n         1 MOL     -0.057361
     75 C23         4.8730   -4.3170   -1.5930 c3        1 MOL     -0.511380
     76 C24         3.3440   -4.3960   -1.8870 c         1 MOL      0.696904
     77 O12         2.9730   -5.0810   -2.8260 o         1 MOL     -0.572086
     78 H34         5.0620   -2.3460   -0.8650 hn        1 MOL      0.259287
     79 H35         5.1420   -5.3160   -1.2360 h1        1 MOL      0.202160
     80 H36         5.5000   -4.0410   -2.4440 h1        1 MOL      0.202160
     81 N9          2.4800   -3.7720   -1.0920 n         1 MOL     -0.628490
     82 C25         1.0260   -3.9910   -1.1510 c3        1 MOL      0.362706
     83 C26         0.2240   -2.6870   -1.0090 c         1 MOL      0.460185
     84 O13         0.6240   -1.6900   -0.3950 o         1 MOL     -0.713694
     85 C27         0.7040   -4.9810    0.0280 c3        1 MOL     -0.007101
     86 C28         1.1390   -6.3810   -0.1890 ca        1 MOL      0.071765
     87 C29         2.3880   -6.8120    0.2550 ca        1 MOL     -0.242576
     88 C30         0.3680   -7.1930   -1.0080 ca        1 MOL     -0.242576
     89 C31         2.7960   -8.1160   -0.1200 ca        1 MOL     -0.069242
     90 C32         0.7830   -8.4510   -1.5140 ca        1 MOL     -0.069242
     91 C33         1.9620   -8.9710   -0.9520 ca        1 MOL      0.120894
     92 O14         2.4450  -10.1820   -1.4370 oh        1 MOL     -0.458421
     93 H37         2.8400   -3.1490   -0.3930 hn        1 MOL      0.494277
     94 H38         0.7960   -4.3650   -2.1400 h1        1 MOL     -0.008557
     95 H39        -0.3790   -4.9920    0.1860 hc        1 MOL     -0.008659
     96 H40         1.2300   -4.5400    0.8790 hc        1 MOL     -0.008659
     97 H41         2.9730   -6.2380    0.9620 ha        1 MOL      0.122453
     98 H42        -0.5940   -6.9290   -1.4060 ha        1 MOL      0.122453
     99 H43         3.7800   -8.4350    0.1840 ha        1 MOL      0.109447
    100 H44         0.1420   -9.0550   -2.1410 ha        1 MOL      0.109447
    101 H45         1.8290  -10.6980   -1.9650 ho        1 MOL      0.360231
    102 N10        -0.9550   -2.7170   -1.6020 n         1 MOL     -0.430053
    103 C34        -2.0550   -1.8120   -1.3890 c3        1 MOL      0.011163
    104 C35        -3.3830   -2.5470   -1.2430 c         1 MOL      0.494238
    105 O15        -3.7450   -3.3770   -2.0280 o         1 MOL     -0.532343
    106 C36        -2.1880   -0.8830   -2.6370 c3        1 MOL     -0.060801
    107 C37        -0.7650   -0.4010   -3.0860 c3        1 MOL      0.092246
    108 C38        -3.0680    0.3780   -2.5370 c3        1 MOL     -0.162822
    109 C39        -0.7920    0.3960   -4.3740 c3        1 MOL     -0.218901
    110 H46        -1.2150   -3.6110   -1.9960 hn        1 MOL      0.262119
    111 H47        -1.8640   -1.1410   -0.5520 h1        1 MOL      0.127122
    112 H48        -2.5930   -1.4600   -3.4700 hc        1 MOL      0.046361
    113 H49        -0.1230   -1.2230   -3.3810 hc        1 MOL      0.048581
    114 H50        -0.2340    0.1950   -2.3380 hc        1 MOL      0.048581
    115 H51        -4.0510    0.0510   -2.1970 hc        1 MOL      0.054056
    116 H52        -2.5960    1.1060   -1.8740 hc        1 MOL      0.054056
    117 H53        -3.2500    0.8460   -3.5070 hc        1 MOL      0.054056
    118 H54        -1.3160    1.3440   -4.2350 hc        1 MOL      0.044057
    119 H55         0.2280    0.5300   -4.7540 hc        1 MOL      0.044057
    120 H56        -1.3200   -0.1220   -5.1740 hc        1 MOL      0.044057
    121 N11        -4.1260   -2.1640   -0.2240 n         1 MOL     -0.164159
    122 C40        -5.4320   -2.7430    0.0820 c3        1 MOL      0.012440
    123 C41        -6.5360   -1.7660   -0.4450 c         1 MOL      0.511246
    124 O16        -6.2130   -0.6300   -0.8260 o         1 MOL     -0.344376
    125 C42        -5.6340   -3.0460    1.5770 c3        1 MOL     -0.169993
    126 O17        -5.5910   -1.8510    2.2860 oh        1 MOL     -0.244371
    127 H57        -3.6220   -1.8220    0.5840 hn        1 MOL      0.182677
    128 H58        -5.4700   -3.6690   -0.4800 h1        1 MOL      0.068943
    129 H59        -4.8450   -3.7020    1.9540 h1        1 MOL      0.082917
    130 H60        -6.6440   -3.4110    1.7570 h1        1 MOL      0.082917
    131 H61        -5.2780   -1.9180    3.1980 ho        1 MOL      0.337065
    132 N12        -7.7780   -2.1980   -0.6070 n         1 MOL     -0.556630
    133 C43        -8.9060   -1.2950   -0.8850 c3        1 MOL      0.181121
    134 C44        -8.9250   -0.0690    0.1420 c         1 MOL      0.497488
    135 O18        -8.9610    1.0620   -0.3490 o         1 MOL     -0.504472
    136 C45       -10.2560   -2.1030   -0.8730 c3        1 MOL     -0.343055
    137 H62        -8.0780   -3.0620   -0.1850 hn        1 MOL      0.326179
    138 H63        -8.9070   -0.8700   -1.8850 h1        1 MOL      0.085031
    139 H64       -10.2150   -2.9070   -1.6150 hc        1 MOL      0.097312
    140 H65       -10.3560   -2.6110    0.0800 hc        1 MOL      0.097312
    141 H66       -11.0770   -1.4610   -1.1820 hc        1 MOL      0.097312
    142 N13        -8.8440   -0.3980    1.4080 n         1 MOL     -0.512960
    143 C46        -8.7480    0.5750    2.5520 c3        1 MOL      0.149419
    144 C47        -7.5170    1.5260    2.3730 c         1 MOL      0.385662
    145 O19        -7.6320    2.6800    2.7810 o         1 MOL     -0.518982
    146 C48        -8.8940   -0.1630    3.9340 c3        1 MOL     -0.148121
    147 H67        -8.8770   -1.3740    1.6800 hn        1 MOL      0.335565
    148 H68        -9.6300    1.2140    2.5380 h1        1 MOL      0.091574
    149 H69        -9.0000    0.5810    4.7250 hc        1 MOL      0.043029
    150 H70        -9.7470   -0.8410    3.9650 hc        1 MOL      0.043029
    151 H71        -8.0460   -0.8530    4.0490 hc        1 MOL      0.043029
    152 N14        -6.4010    1.0980    1.7680 n         1 MOL     -0.015754
    153 C49        -5.2990    2.0130    1.3820 c3        1 MOL     -0.059965
    154 C50        -5.5880    2.8660    0.1630 c         1 MOL      0.434546
    155 O20        -5.2460    4.0430    0.0770 o         1 MOL     -0.554931
    156 C51        -4.0110    1.1640    1.2460 c3        1 MOL      0.118794
    157 C52        -2.6840    2.0020    1.3410 c3        1 MOL     -0.111425
    158 C53        -1.4170    1.1720    1.2760 c         1 MOL      0.740530
    159 O21        -0.3520    1.6950    0.8260 o         1 MOL     -0.769344
    160 O22        -1.3580   -0.0370    1.6570 o         1 MOL     -0.769344
    161 H72        -6.3800    0.1160    1.5170 hn        1 MOL     -0.183905
    162 H73        -5.0770    2.6930    2.2060 h1        1 MOL      0.080833
    163 H74        -4.0710    0.5640    0.3350 hc        1 MOL     -0.057753
    164 H75        -4.1570    0.4450    2.0550 hc        1 MOL     -0.057753
    165 H76        -2.8140    2.5900    2.2480 hc        1 MOL      0.041029
    166 H77        -2.6730    2.7700    0.5790 hc        1 MOL      0.041029
    167 N15        -6.2160    2.2480   -0.8470 n         1 MOL     -0.005128
    168 C54        -6.3650    2.8480   -2.1260 c3        1 MOL     -0.216548
    169 H78        -6.5940    3.9070   -2.0060 h1        1 MOL      0.081534
    170 H79        -5.4390    2.7390   -2.6890 h1        1 MOL      0.081534
    171 H80        -7.1780    2.3590   -2.6650 h1        1 MOL      0.081534
    172 H81        -6.4700    1.2790   -0.6860 hn        1 MOL      0.057238
    173 Ca1         1.3190    0.0350    1.5330 Ca        1 MOL      1.795015
    174 O23         0.4990    1.2700    4.0320 oh        1 MOL     -0.822745
    175 H82         0.9180    2.0580    4.3630 ho        1 MOL      0.398430
    176 H83         0.1360    0.8400    4.8080 ho        1 MOL      0.398430
@<TRIPOS>BOND
     1    1    2 1   
     2    1    4 1   
     3    1    5 1   
     4    1    6 1   
     5    2    3 2   
     6    2    7 1   
     7    7    8 1   
     8    7   15 1   
     9    8    9 1   
    10    8   11 1   
    11    8   16 1   
    12    9   10 2   
    13    9   19 1   
    14   11   12 1   
    15   11   17 1   
    16   11   18 1   
    17   12   13 1   
    18   12   14 1   
    19   19   20 1   
    20   19   28 1   
    21   20   21 1   
    22   20   23 1   
    23   20   29 1   
    24   21   22 2   
    25   21   41 1   
    26   23   24 1   
    27   23   30 1   
    28   23   31 1   
    29   24   25 1   
    30   24   32 1   
    31   24   33 1   
    32   25   26 1   
    33   25   34 1   
    34   25   35 1   
    35   26   27 1   
    36   26   36 1   
    37   26   37 1   
    38   27   38 1   
    39   27   39 1   
    40   27   40 1   
    41   41   42 1   
    42   41   49 1   
    43   42   43 1   
    44   42   45 1   
    45   42   50 1   
    46   43   44 2   
    47   43   53 1   
    48   45   46 1   
    49   45   51 1   
    50   45   52 1   
    51   46   47 1   
    52   46   48 1   
    53   53   54 1   
    54   53   57 1   
    55   54   55 1   
    56   54   58 1   
    57   54   59 1   
    58   55   56 2   
    59   55   60 1   
    60   60   61 1   
    61   60   68 1   
    62   61   62 1   
    63   61   64 1   
    64   61   69 1   
    65   62   63 2   
    66   62   74 1   
    67   64   65 1   
    68   64   70 1   
    69   64   71 1   
    70   65   66 1   
    71   65   67 2   
    72   66   72 1   
    73   66   73 1   
    74   74   75 1   
    75   74   78 1   
    76   75   76 1   
    77   75   79 1   
    78   75   80 1   
    79   76   77 2   
    80   76   81 1   
    81   81   82 1   
    82   81   93 1   
    83   82   83 1   
    84   82   85 1   
    85   82   94 1   
    86   83   84 2   
    87   83  102 1   
    88   85   86 1   
    89   85   95 1   
    90   85   96 1   
    91   86   87 ar  
    92   86   88 ar  
    93   87   89 ar  
    94   87   97 1   
    95   88   90 ar  
    96   88   98 1   
    97   89   91 ar  
    98   89   99 1   
    99   90   91 ar  
   100   90  100 1   
   101   91   92 1   
   102   92  101 1   
   103  102  103 1   
   104  102  110 1   
   105  103  104 1   
   106  103  106 1   
   107  103  111 1   
   108  104  105 2   
   109  104  121 1   
   110  106  107 1   
   111  106  108 1   
   112  106  112 1   
   113  107  109 1   
   114  107  113 1   
   115  107  114 1   
   116  108  115 1   
   117  108  116 1   
   118  108  117 1   
   119  109  118 1   
   120  109  119 1   
   121  109  120 1   
   122  121  122 1   
   123  121  127 1   
   124  122  123 1   
   125  122  125 1   
   126  122  128 1   
   127  123  124 2   
   128  123  132 1   
   129  125  126 1   
   130  125  129 1   
   131  125  130 1   
   132  126  131 1   
   133  132  133 1   
   134  132  137 1   
   135  133  134 1   
   136  133  136 1   
   137  133  138 1   
   138  134  135 2   
   139  134  142 1   
   140  136  139 1   
   141  136  140 1   
   142  136  141 1   
   143  142  143 1   
   144  142  147 1   
   145  143  144 1   
   146  143  146 1   
   147  143  148 1   
   148  144  145 2   
   149  144  152 1   
   150  146  149 1   
   151  146  150 1   
   152  146  151 1   
   153  152  153 1   
   154  152  161 1   
   155  153  154 1   
   156  153  156 1   
   157  153  162 1   
   158  154  155 2   
   159  154  167 1   
   160  156  157 1   
   161  156  163 1   
   162  156  164 1   
   163  157  158 1   
   164  157  165 1   
   165  157  166 1   
   166  158  159 1   
   167  158  160 1   
   168  167  168 1   
   169  167  172 1   
   170  168  169 1   
   171  168  170 1   
   172  168  171 1   
   173  174  175 1   
   174  174  176 1   
@<TRIPOS>SUBSTRUCTURE
     1 MOL         1 TEMP              0 ****  ****    0 ROOT
