@<TRIPOS>MOLECULE
MOL
  189   185     1     0     0
SMALL
resp


@<TRIPOS>ATOM
      1 C1          0.2790    3.4870   -5.1430 c3        1 MOL     -0.285502
      2 C2          0.5620    2.8710   -3.7550 c         1 MOL      0.796510
      3 O1         -0.2520    3.0360   -2.8470 o         1 MOL     -0.705061
      4 H1          1.2110    3.5710   -5.7000 hc        1 MOL      0.071496
      5 H2         -0.4150    2.8480   -5.6900 hc        1 MOL      0.071496
      6 H3         -0.1600    4.4770   -5.0190 hc        1 MOL      0.071496
      7 N1          1.6990    2.1720   -3.5840 n         1 MOL     -0.674783
      8 C3          2.2510    1.6980   -2.3030 c3        1 MOL      0.354880
      9 C4          2.7860    2.9110   -1.5040 c         1 MOL      0.308293
     10 O2          3.8050    3.4900   -1.9500 o         1 MOL     -0.551480
     11 C5          3.2760    0.5790   -2.5320 c3        1 MOL     -0.339600
     12 C6          4.0040    0.1300   -1.2300 c         1 MOL      0.742490
     13 O3          3.3870    0.3770   -0.1350 o         1 MOL     -0.647814
     14 O4          5.1630   -0.3200   -1.2720 o         1 MOL     -0.647814
     15 H4          2.2660    1.8270   -4.3380 hn        1 MOL      0.332711
     16 H5          1.3890    1.2850   -1.7730 h1        1 MOL     -0.048672
     17 H6          4.0280    0.8530   -3.2670 hc        1 MOL      0.078260
     18 H7          2.7770   -0.3060   -2.9090 hc        1 MOL      0.078260
     19 N2          2.1090    3.3270   -0.4130 n         1 MOL      0.007127
     20 C7          2.3200    4.6300    0.2610 c3        1 MOL      0.048728
     21 C8          3.3980    4.6360    1.3450 c         1 MOL      0.333807
     22 O5          3.8070    5.7210    1.7390 o         1 MOL     -0.549515
     23 C9          0.9940    5.2390    0.7160 c3        1 MOL      0.117829
     24 C10         0.8180    6.7830    0.6780 c3        1 MOL     -0.159656
     25 C11         1.2020    7.5650   -0.6000 c3        1 MOL     -0.014795
     26 C12         0.6210    6.9710   -1.8210 c3        1 MOL      0.154444
     27 N3          1.1280    7.6840   -3.0820 n4        1 MOL     -0.489646
     28 H8          1.2970    2.8000   -0.1150 hn        1 MOL      0.089576
     29 H9          2.7190    5.2360   -0.5460 h1        1 MOL      0.023733
     30 H10         0.8860    4.8640    1.7310 hc        1 MOL      0.017518
     31 H11         0.2090    4.7810    0.1170 hc        1 MOL      0.017518
     32 H12         1.3380    7.2760    1.5000 hc        1 MOL      0.062149
     33 H13        -0.2400    6.9050    0.9140 hc        1 MOL      0.062149
     34 H14         2.2790    7.6140   -0.7420 hc        1 MOL      0.027054
     35 H15         0.8130    8.5850   -0.5420 hc        1 MOL      0.027054
     36 H16        -0.4410    7.1900   -1.6990 hx        1 MOL      0.056412
     37 H17         0.8490    5.9100   -1.8650 hx        1 MOL      0.056412
     38 H18         0.9270    7.2390   -3.9720 hn        1 MOL      0.348302
     39 H19         0.7170    8.6130   -3.1350 hn        1 MOL      0.348302
     40 H20         2.1320    7.7710   -3.0430 hn        1 MOL      0.348302
     41 N4          3.7040    3.4560    1.8040 n         1 MOL     -0.100225
     42 C13         4.7200    3.2670    2.8320 c3        1 MOL      0.007595
     43 C14         5.9840    2.3980    2.4140 c         1 MOL      0.346354
     44 O6          6.7460    2.1180    3.3030 o         1 MOL     -0.464975
     45 C15         4.0680    2.7580    4.0860 c3        1 MOL     -0.068155
     46 C16         3.0220    1.6070    3.9470 c         1 MOL      0.743077
     47 O7          2.2780    1.4540    4.9570 o         1 MOL     -0.698181
     48 O8          2.9990    0.8250    2.9920 o         1 MOL     -0.698181
     49 H21         3.2760    2.7020    1.2980 hn        1 MOL      0.027354
     50 H22         5.1440    4.2420    3.0950 h1        1 MOL      0.084311
     51 H23         3.5580    3.5250    4.6600 hc        1 MOL      0.021972
     52 H24         4.8690    2.4230    4.7360 hc        1 MOL      0.021972
     53 N5          6.0660    1.8390    1.2080 n         1 MOL     -0.177197
     54 C17         7.3330    1.2630    0.7700 c3        1 MOL     -0.131818
     55 C18         7.5690   -0.1580    1.2270 c         1 MOL      0.468936
     56 O9          8.6980   -0.4990    1.5180 o         1 MOL     -0.567465
     57 H25         5.4350    2.2280    0.5280 hn        1 MOL      0.202240
     58 H26         8.2060    1.8550    1.0200 h1        1 MOL      0.094537
     59 H27         7.3250    1.1540   -0.3240 h1        1 MOL      0.094537
     60 N6          6.5340   -1.0010    1.4230 n         1 MOL     -0.105686
     61 C19         6.5560   -2.3950    1.9330 c3        1 MOL      0.020940
     62 C20         6.6440   -3.4120    0.8020 c         1 MOL      0.381516
     63 O10         6.9290   -4.6320    1.0440 o         1 MOL     -0.533287
     64 C21         5.4730   -2.7450    2.9830 c3        1 MOL     -0.316335
     65 C22         4.0330   -2.6120    2.4690 c         1 MOL      0.868369
     66 O11         3.0460   -2.2240    3.2210 o         1 MOL     -0.805904
     67 O12         3.8300   -2.7620    1.2320 o         1 MOL     -0.805904
     68 H28         5.6620   -0.5350    1.2610 hn        1 MOL      0.100878
     69 H29         7.5280   -2.5190    2.4160 h1        1 MOL      0.101797
     70 H30         5.5800   -2.0680    3.8230 hc        1 MOL      0.099520
     71 H31         5.5370   -3.7970    3.2970 hc        1 MOL      0.099520
     72 N7          6.4440   -2.9370   -0.4410 n         1 MOL     -0.269192
     73 C23         6.3880   -3.7570   -1.6800 c3        1 MOL     -0.074355
     74 C24         4.9930   -4.2150   -2.1600 c         1 MOL      0.536704
     75 O13         5.0280   -5.1120   -2.9890 o         1 MOL     -0.557150
     76 H32         6.2660   -1.9520   -0.5200 hn        1 MOL      0.232622
     77 H33         6.8760   -4.7180   -1.5660 h1        1 MOL      0.074892
     78 H34         6.8700   -3.1790   -2.4760 h1        1 MOL      0.074892
     79 N8          3.9670   -3.5870   -1.6490 n         1 MOL     -0.268235
     80 C25         2.6210   -4.1030   -1.8230 c3        1 MOL     -0.293318
     81 C26         1.5610   -2.9710   -1.6440 c         1 MOL      0.847682
     82 O14         1.8120   -1.9770   -1.0060 o         1 MOL     -0.779540
     83 C27         2.3030   -5.2960   -0.8910 c3        1 MOL      0.663970
     84 C28         2.7910   -6.6330   -1.4630 c3        1 MOL     -0.651763
     85 O15         2.8450   -5.1850    0.3670 oh        1 MOL     -0.679359
     86 H35         4.1490   -2.8170   -1.0180 hn        1 MOL      0.242580
     87 H36         2.4230   -4.4640   -2.8280 h1        1 MOL      0.095569
     88 H37         1.2350   -5.3560   -0.7200 h1        1 MOL     -0.080610
     89 H38         3.3290   -4.3590    0.3790 ho        1 MOL      0.488626
     90 H39         2.2320   -7.3960   -0.9230 hc        1 MOL      0.158723
     91 H40         2.5740   -6.7290   -2.5340 hc        1 MOL      0.158723
     92 H41         3.8650   -6.7520   -1.2990 hc        1 MOL      0.158723
     93 N9          0.3760   -3.1730   -2.2470 n         1 MOL     -0.679444
     94 C29        -0.7500   -2.2190   -2.3460 c3        1 MOL      0.251716
     95 C30        -2.0890   -2.7990   -1.8110 c         1 MOL      0.390870
     96 O16        -2.5860   -3.8330   -2.3360 o         1 MOL     -0.536445
     97 C31        -1.0030   -1.6650   -3.8110 c3        1 MOL      0.297174
     98 C32         0.2870   -1.4070   -4.6230 c3        1 MOL     -0.052071
     99 C33        -1.9720   -0.4950   -3.8680 c3        1 MOL     -0.508951
    100 C34         0.0760   -1.3540   -6.1770 c3        1 MOL     -0.115859
    101 H42         0.3760   -4.0880   -2.6730 hn        1 MOL      0.274723
    102 H43        -0.6320   -1.3140   -1.7410 h1        1 MOL      0.068931
    103 H44        -1.5480   -2.5180   -4.2140 hc        1 MOL     -0.050192
    104 H45         0.9460   -2.2640   -4.5350 hc        1 MOL      0.018472
    105 H46         0.8060   -0.5020   -4.2830 hc        1 MOL      0.018472
    106 H47        -2.6240   -0.6190   -3.0050 hc        1 MOL      0.104233
    107 H48        -1.4380    0.4180   -3.5830 hc        1 MOL      0.104233
    108 H49        -2.7010   -0.4420   -4.6740 hc        1 MOL      0.104233
    109 H50        -0.8890   -0.8830   -6.3860 hc        1 MOL      0.028781
    110 H51         0.9090   -0.8610   -6.6800 hc        1 MOL      0.028781
    111 H52        -0.0000   -2.3430   -6.6320 hc        1 MOL      0.028781
    112 N10        -2.6330   -2.2360   -0.7220 n         1 MOL     -0.158829
    113 C35        -3.8150   -2.7550   -0.0720 c3        1 MOL     -0.020066
    114 C36        -5.1040   -2.2690   -0.7820 c         1 MOL      0.275748
    115 O17        -5.0140   -1.3420   -1.6130 o         1 MOL     -0.347970
    116 C37        -3.9970   -2.3370    1.4120 c3        1 MOL      0.065340
    117 C38        -2.8810   -2.9690    2.2600 c3        1 MOL     -0.459823
    118 O18        -3.9020   -0.9690    1.5010 oh        1 MOL     -0.293110
    119 H53        -2.1630   -1.4230   -0.3570 hn        1 MOL      0.235624
    120 H54        -3.9010   -3.8450   -0.1160 h1        1 MOL      0.082327
    121 H55        -4.9990   -2.6380    1.7340 h1        1 MOL      0.009719
    122 H56        -3.3420   -0.7430    2.2400 ho        1 MOL      0.339058
    123 H57        -1.9620   -2.6390    1.7710 hc        1 MOL      0.135504
    124 H58        -3.0150   -2.7120    3.3190 hc        1 MOL      0.135504
    125 H59        -3.0070   -4.0490    2.2460 hc        1 MOL      0.135504
    126 N11        -6.3010   -2.6720   -0.3630 n         1 MOL     -0.129668
    127 C39        -7.4650   -1.9510   -0.8400 c3        1 MOL     -0.133909
    128 C40        -7.4910   -0.4820   -0.5420 c         1 MOL      0.278728
    129 O19        -7.9720    0.2990   -1.4030 o         1 MOL     -0.476188
    130 C41        -8.7380   -2.5440   -0.2210 c3        1 MOL      0.300010
    131 C42        -8.6990   -4.0830   -0.1730 c3        1 MOL     -0.602328
    132 O20        -8.8290   -2.1470    1.1740 oh        1 MOL     -0.620016
    133 H60        -6.3910   -3.5460    0.1280 hn        1 MOL      0.202736
    134 H61        -7.5080   -1.9900   -1.9280 h1        1 MOL      0.128869
    135 H62        -9.6670   -2.2190   -0.6730 h1        1 MOL      0.068907
    136 H63        -9.7380   -2.1380    1.4970 ho        1 MOL      0.401037
    137 H64        -7.8040   -4.6040    0.1800 hc        1 MOL      0.170089
    138 H65        -9.4340   -4.3570    0.5930 hc        1 MOL      0.170089
    139 H66        -8.8480   -4.4820   -1.1740 hc        1 MOL      0.170089
    140 N12        -6.9760   -0.0860    0.6100 n         1 MOL     -0.039071
    141 C43        -6.9870    1.2660    1.0930 c3        1 MOL     -0.126219
    142 C44        -6.0080    2.1610    0.2730 c         1 MOL      0.361774
    143 O21        -6.4000    3.2890    0.0190 o         1 MOL     -0.503760
    144 C45        -6.6680    1.2340    2.5880 c3        1 MOL      0.062720
    145 C46        -7.8620    0.6970    3.4280 c3        1 MOL     -0.082174
    146 C47        -7.4070    0.3940    4.8230 c3        1 MOL      0.052307
    147 C48        -8.5900   -0.1460    5.6820 c3        1 MOL      0.077543
    148 N13        -8.0890   -0.7770    6.9410 n4        1 MOL     -0.302550
    149 H67        -6.4680   -0.8230    1.0820 hn        1 MOL      0.170472
    150 H68        -8.0210    1.6010    0.9900 h1        1 MOL      0.110209
    151 H69        -6.4490    2.2390    2.9470 hc        1 MOL      0.022081
    152 H70        -5.7590    0.6670    2.7800 hc        1 MOL      0.022081
    153 H71        -8.3290   -0.2020    3.0260 hc        1 MOL      0.028598
    154 H72        -8.5560    1.5250    3.4310 hc        1 MOL      0.028598
    155 H73        -6.9730    1.2650    5.3000 hc        1 MOL      0.000116
    156 H74        -6.6540   -0.3830    4.6570 hc        1 MOL      0.000116
    157 H75        -9.1520   -0.8510    5.0740 hx        1 MOL      0.063423
    158 H76        -9.2470    0.6830    5.9360 hx        1 MOL      0.063423
    159 H77        -7.3500   -1.4230    6.6980 hn        1 MOL      0.296857
    160 H78        -7.6540   -0.0850    7.5360 hn        1 MOL      0.296857
    161 H79        -8.8110   -1.2330    7.4750 hn        1 MOL      0.296857
    162 N14        -4.8830    1.6430   -0.1550 n         1 MOL      0.026466
    163 C49        -3.9010    2.3450   -1.0280 c3        1 MOL     -0.232507
    164 C50        -4.2710    2.4060   -2.5150 c         1 MOL      0.412271
    165 O22        -3.9790    3.4610   -3.2410 o         1 MOL     -0.558314
    166 C51        -2.4910    1.6270   -0.7730 c3        1 MOL      0.035757
    167 C52        -1.8960    1.7560    0.6240 c3        1 MOL     -0.085251
    168 C53        -0.6080    0.9640    0.7670 c         1 MOL      0.618089
    169 O23         0.4090    1.5040    1.2020 o         1 MOL     -0.661972
    170 O24        -0.6640   -0.2770    0.5780 o         1 MOL     -0.661972
    171 H80        -4.6490    0.7010    0.1410 hn        1 MOL     -0.048818
    172 H81        -3.8200    3.3620   -0.6510 h1        1 MOL      0.136782
    173 H82        -1.7350    1.9750   -1.4700 hc        1 MOL      0.096106
    174 H83        -2.5200    0.5970   -1.1140 hc        1 MOL      0.096106
    175 H84        -2.5800    1.5350    1.4430 hc        1 MOL     -0.013529
    176 H85        -1.6980    2.8260    0.7350 hc        1 MOL     -0.013529
    177 N15        -5.0030    1.3940   -2.9830 n         1 MOL     -0.006032
    178 C54        -5.7310    1.3990   -4.2740 c3        1 MOL     -0.342743
    179 H86        -5.9930    2.4240   -4.5390 h1        1 MOL      0.129267
    180 H87        -5.0950    0.9750   -5.0520 h1        1 MOL      0.129267
    181 H88        -6.6400    0.8050   -4.1820 h1        1 MOL      0.129267
    182 H89        -5.0210    0.6140   -2.3330 hn        1 MOL      0.128739
    183 Ca1         1.7930   -0.7380    1.4170 Ca        1 MOL      1.719342
    184 O25         0.6490   -0.7320    3.9440 oh        1 MOL     -0.863429
    185 H90         0.9310   -1.5910    4.2720 ho        1 MOL      0.406032
    186 H91         1.2840   -0.1190    4.3140 ho        1 MOL      0.406032
    187 O26         0.6880   -3.2950    1.2840 oh        1 MOL     -0.863429
    188 H92        -0.2370   -3.5020    1.4270 ho        1 MOL      0.406032
    189 H93         1.1640   -3.9850    1.7440 ho        1 MOL      0.406032
@<TRIPOS>BOND
     1    1    2 1   
     2    1    4 1   
     3    1    5 1   
     4    1    6 1   
     5    2    3 2   
     6    2    7 1   
     7    7    8 1   
     8    7   15 1   
     9    8    9 1   
    10    8   11 1   
    11    8   16 1   
    12    9   10 2   
    13    9   19 1   
    14   11   12 1   
    15   11   17 1   
    16   11   18 1   
    17   12   13 1   
    18   12   14 1   
    19   19   20 1   
    20   19   28 1   
    21   20   21 1   
    22   20   23 1   
    23   20   29 1   
    24   21   22 2   
    25   21   41 1   
    26   23   24 1   
    27   23   30 1   
    28   23   31 1   
    29   24   25 1   
    30   24   32 1   
    31   24   33 1   
    32   25   26 1   
    33   25   34 1   
    34   25   35 1   
    35   26   27 1   
    36   26   36 1   
    37   26   37 1   
    38   27   38 1   
    39   27   39 1   
    40   27   40 1   
    41   41   42 1   
    42   41   49 1   
    43   42   43 1   
    44   42   45 1   
    45   42   50 1   
    46   43   44 2   
    47   43   53 1   
    48   45   46 1   
    49   45   51 1   
    50   45   52 1   
    51   46   47 1   
    52   46   48 1   
    53   53   54 1   
    54   53   57 1   
    55   54   55 1   
    56   54   58 1   
    57   54   59 1   
    58   55   56 2   
    59   55   60 1   
    60   60   61 1   
    61   60   68 1   
    62   61   62 1   
    63   61   64 1   
    64   61   69 1   
    65   62   63 2   
    66   62   72 1   
    67   64   65 1   
    68   64   70 1   
    69   64   71 1   
    70   65   66 1   
    71   65   67 1   
    72   72   73 1   
    73   72   76 1   
    74   73   74 1   
    75   73   77 1   
    76   73   78 1   
    77   74   75 2   
    78   74   79 1   
    79   79   80 1   
    80   79   86 1   
    81   80   81 1   
    82   80   83 1   
    83   80   87 1   
    84   81   82 2   
    85   81   93 1   
    86   83   84 1   
    87   83   85 1   
    88   83   88 1   
    89   84   90 1   
    90   84   91 1   
    91   84   92 1   
    92   85   89 1   
    93   93   94 1   
    94   93  101 1   
    95   94   95 1   
    96   94   97 1   
    97   94  102 1   
    98   95   96 2   
    99   95  112 1   
   100   97   98 1   
   101   97   99 1   
   102   97  103 1   
   103   98  100 1   
   104   98  104 1   
   105   98  105 1   
   106   99  106 1   
   107   99  107 1   
   108   99  108 1   
   109  100  109 1   
   110  100  110 1   
   111  100  111 1   
   112  112  113 1   
   113  112  119 1   
   114  113  114 1   
   115  113  116 1   
   116  113  120 1   
   117  114  115 2   
   118  114  126 1   
   119  116  117 1   
   120  116  118 1   
   121  116  121 1   
   122  117  123 1   
   123  117  124 1   
   124  117  125 1   
   125  118  122 1   
   126  126  127 1   
   127  126  133 1   
   128  127  128 1   
   129  127  130 1   
   130  127  134 1   
   131  128  129 2   
   132  128  140 1   
   133  130  131 1   
   134  130  132 1   
   135  130  135 1   
   136  131  137 1   
   137  131  138 1   
   138  131  139 1   
   139  132  136 1   
   140  140  141 1   
   141  140  149 1   
   142  141  142 1   
   143  141  144 1   
   144  141  150 1   
   145  142  143 2   
   146  142  162 1   
   147  144  145 1   
   148  144  151 1   
   149  144  152 1   
   150  145  146 1   
   151  145  153 1   
   152  145  154 1   
   153  146  147 1   
   154  146  155 1   
   155  146  156 1   
   156  147  148 1   
   157  147  157 1   
   158  147  158 1   
   159  148  159 1   
   160  148  160 1   
   161  148  161 1   
   162  162  163 1   
   163  162  171 1   
   164  163  164 1   
   165  163  166 1   
   166  163  172 1   
   167  164  165 2   
   168  164  177 1   
   169  166  167 1   
   170  166  173 1   
   171  166  174 1   
   172  167  168 1   
   173  167  175 1   
   174  167  176 1   
   175  168  169 1   
   176  168  170 1   
   177  177  178 1   
   178  177  182 1   
   179  178  179 1   
   180  178  180 1   
   181  178  181 1   
   182  184  185 1   
   183  184  186 1   
   184  187  188 1   
   185  187  189 1   
@<TRIPOS>SUBSTRUCTURE
     1 MOL         1 TEMP              0 ****  ****    0 ROOT
