@<TRIPOS>MOLECULE
MOL
  182   178     1     0     0
SMALL
resp


@<TRIPOS>ATOM
      1 C1          2.4950    1.7960    5.5220 c3        1 MOL     -0.283850
      2 C2          1.9560    1.8200    4.0560 c         1 MOL      0.573368
      3 O1          2.7300    1.9990    3.1110 o         1 MOL     -0.521982
      4 H1          2.3800    2.7850    5.9670 hc        1 MOL      0.084734
      5 H2          1.9330    1.0680    6.1060 hc        1 MOL      0.084734
      6 H3          3.5500    1.5220    5.5170 hc        1 MOL      0.084734
      7 N1          0.5820    1.8810    3.8620 n         1 MOL     -0.383663
      8 C3         -0.0880    2.1540    2.5930 c3        1 MOL      0.139458
      9 C4         -0.0780    3.6140    2.1800 c         1 MOL      0.350672
     10 O2         -0.4120    4.5720    2.9360 o         1 MOL     -0.541120
     11 C5         -1.4750    1.4860    2.8900 c3        1 MOL     -0.361148
     12 C6         -2.4760    1.3290    1.7650 c         1 MOL      0.952648
     13 O3         -2.0730    1.4890    0.5820 o         1 MOL     -0.804558
     14 O4         -3.6720    1.0880    2.0520 o         1 MOL     -0.804558
     15 H4         -0.0050    2.1510    4.6390 hn        1 MOL      0.258159
     16 H5          0.4110    1.6040    1.7950 h1        1 MOL      0.037968
     17 H6         -1.8530    2.0490    3.7490 hc        1 MOL      0.085026
     18 H7         -1.2410    0.4490    3.1700 hc        1 MOL      0.085026
     19 N2          0.3860    3.8350    0.9120 n         1 MOL      0.022885
     20 C7          0.8710    5.1180    0.3930 c3        1 MOL     -0.200590
     21 C8         -0.2420    5.6860   -0.5240 c         1 MOL      0.437087
     22 O5         -0.4660    6.9040   -0.5790 o         1 MOL     -0.590073
     23 C9          2.3090    5.0410    0.0150 c3        1 MOL      0.153334
     24 C10         2.7750    6.4690   -0.1070 c3        1 MOL     -0.212402
     25 C11         4.3150    6.4380   -0.3950 c3        1 MOL     -0.010912
     26 C12         4.8640    7.6980   -1.1550 c3        1 MOL     -0.042854
     27 N3          4.5930    8.9030   -0.3860 n4        1 MOL     -0.273025
     28 H8          0.6200    2.9800    0.4310 hn        1 MOL     -0.007148
     29 H9          0.9430    5.7210    1.2910 h1        1 MOL      0.113135
     30 H10         2.5150    4.5290   -0.9220 hc        1 MOL      0.061822
     31 H11         2.9040    4.4570    0.7280 hc        1 MOL      0.061822
     32 H12         2.6230    6.9700    0.8420 hc        1 MOL      0.069674
     33 H13         2.2950    6.9940   -0.9300 hc        1 MOL      0.069674
     34 H14         4.5530    5.5280   -0.9420 hc        1 MOL      0.041571
     35 H15         4.8530    6.3600    0.5480 hc        1 MOL      0.041571
     36 H16         4.3490    7.7800   -2.1070 hx        1 MOL      0.101416
     37 H17         5.9480    7.5950   -1.2190 hx        1 MOL      0.101416
     38 H18         3.5970    8.9410   -0.2690 hn        1 MOL      0.310095
     39 H19         4.9950    8.8020    0.5330 hn        1 MOL      0.310095
     40 H20         4.9520    9.6910   -0.9080 hn        1 MOL      0.310095
     41 N4         -1.1320    4.8990   -1.0720 n         1 MOL     -0.240123
     42 C13        -2.4310    5.3850   -1.7500 c3        1 MOL      0.052825
     43 C14        -3.6740    5.1400   -0.7970 c         1 MOL      0.425047
     44 O6         -4.7530    5.5330   -1.1730 o         1 MOL     -0.526952
     45 C15        -2.6600    4.8220   -3.2060 c3        1 MOL     -0.311426
     46 C16        -2.3570    3.2820   -3.3440 c         1 MOL      0.762320
     47 O7         -2.2020    2.5650   -2.3070 o         1 MOL     -0.709064
     48 O8         -2.2190    2.7300   -4.4450 o         1 MOL     -0.709064
     49 H21        -1.1560    3.9050   -0.9310 hn        1 MOL      0.167129
     50 H22        -2.3410    6.4760   -1.8340 h1        1 MOL      0.112755
     51 H23        -2.0980    5.4230   -3.9290 hc        1 MOL      0.096193
     52 H24        -3.7300    4.9570   -3.3620 hc        1 MOL      0.096193
     53 N5         -3.5120    4.5160    0.3670 n         1 MOL     -0.243358
     54 C17        -4.5780    4.1580    1.3190 c3        1 MOL     -0.131187
     55 C18        -5.6540    3.1890    0.8140 c         1 MOL      0.549372
     56 O9         -6.7090    3.1220    1.3920 o         1 MOL     -0.575222
     57 H25        -2.5520    4.3410    0.6490 hn        1 MOL      0.225430
     58 H26        -5.0350    5.0470    1.7600 h1        1 MOL      0.094693
     59 H27        -4.0600    3.6470    2.1210 h1        1 MOL      0.094693
     60 N6         -5.3300    2.3670   -0.1900 n         1 MOL     -0.179315
     61 C19        -6.2450    1.4180   -0.8120 c3        1 MOL     -0.302432
     62 C20        -6.6910    0.1690    0.0090 c         1 MOL      0.465277
     63 O10        -7.6030   -0.5210   -0.4330 o         1 MOL     -0.526886
     64 C21        -5.7180    0.9200   -2.1980 c3        1 MOL     -0.040287
     65 C22        -4.6860   -0.2250   -2.0720 c         1 MOL      0.379100
     66 N7         -4.9210   -1.3170   -2.7270 n         1 MOL     -0.645328
     67 O11        -3.6760   -0.1150   -1.3760 o         1 MOL     -0.453982
     68 H28        -4.4040    2.4400   -0.5880 hn        1 MOL      0.236855
     69 H29        -7.1310    1.9860   -1.1050 h1        1 MOL      0.160565
     70 H30        -5.3340    1.7410   -2.8100 hc        1 MOL      0.071541
     71 H31        -6.5430    0.5820   -2.8300 hc        1 MOL      0.071541
     72 H32        -5.7750   -1.4520   -3.2560 hn        1 MOL      0.344982
     73 H33        -4.2240   -2.0370   -2.7090 hn        1 MOL      0.344982
     74 N8         -6.1420    0.0270    1.1610 n         1 MOL     -0.112694
     75 C23        -6.3930   -0.9890    2.1710 c3        1 MOL     -0.281199
     76 C24        -5.4630   -2.2220    2.0930 c         1 MOL      0.643114
     77 O12        -5.7690   -3.2590    2.6950 o         1 MOL     -0.565706
     78 H34        -5.5180    0.7630    1.4670 hn        1 MOL      0.311355
     79 H35        -7.4230   -1.3430    2.2290 h1        1 MOL      0.116930
     80 H36        -6.0510   -0.7060    3.1700 h1        1 MOL      0.116930
     81 N9         -4.3290   -2.0970    1.3690 n         1 MOL     -0.315968
     82 C25        -3.3880   -3.1190    1.1400 c3        1 MOL      0.006458
     83 C26        -1.9670   -2.4830    1.1330 c         1 MOL      0.563117
     84 O13        -1.7520   -1.3970    0.5350 o         1 MOL     -0.657517
     85 C27        -3.6060   -3.7810   -0.2350 c3        1 MOL      0.040921
     86 C28        -4.7590   -4.7790   -0.4060 ca        1 MOL      0.100991
     87 C29        -6.0240   -4.4320   -0.9040 ca        1 MOL     -0.277364
     88 C30        -4.5500   -6.0860   -0.1140 ca        1 MOL     -0.277364
     89 C31        -7.0450   -5.3790   -1.1470 ca        1 MOL     -0.058207
     90 C32        -5.5410   -7.0720   -0.3170 ca        1 MOL     -0.058207
     91 C33        -6.7580   -6.7590   -0.9210 ca        1 MOL      0.133741
     92 O14        -7.6840   -7.6820   -1.1930 oh        1 MOL     -0.424539
     93 H37        -3.9410   -1.1770    1.1900 hn        1 MOL      0.210339
     94 H38        -3.4470   -3.9510    1.8540 h1        1 MOL      0.045079
     95 H39        -2.6510   -4.2630   -0.4490 hc        1 MOL     -0.012634
     96 H40        -3.7170   -2.9430   -0.9210 hc        1 MOL     -0.012634
     97 H41        -6.2210   -3.3750   -0.9480 ha        1 MOL      0.136926
     98 H42        -3.6190   -6.3680    0.3550 ha        1 MOL      0.136926
     99 H43        -8.0200   -5.0840   -1.4980 ha        1 MOL      0.100675
    100 H44        -5.2810   -8.0900   -0.0770 ha        1 MOL      0.100675
    101 H45        -7.5580   -8.4670   -0.6490 ho        1 MOL      0.346436
    102 N10        -0.9430   -3.1440    1.6700 n         1 MOL     -0.376997
    103 C34         0.4510   -2.7280    1.7030 c3        1 MOL      0.055431
    104 C35         1.2140   -3.6550    0.7850 c         1 MOL      0.589387
    105 O15         0.9630   -4.8670    0.7900 o         1 MOL     -0.606917
    106 C36         1.0610   -2.6890    3.1410 c3        1 MOL      0.088736
    107 C37         0.2580   -1.9770    4.2750 c3        1 MOL      0.366029
    108 C38         2.4250   -2.0260    3.0730 c3        1 MOL     -0.382922
    109 C39         0.5730   -2.5400    5.6890 c3        1 MOL     -0.184231
    110 H46        -1.1650   -4.0160    2.1310 hn        1 MOL      0.240979
    111 H47         0.5030   -1.7200    1.3120 h1        1 MOL      0.111427
    112 H48         1.1500   -3.7650    3.3400 hc        1 MOL     -0.011787
    113 H49        -0.8040   -2.2000    4.1660 hc        1 MOL     -0.118775
    114 H50         0.3920   -0.9000    4.2680 hc        1 MOL     -0.118775
    115 H51         3.0930   -2.6770    2.5030 hc        1 MOL      0.084883
    116 H52         2.3180   -1.1160    2.4860 hc        1 MOL      0.084883
    117 H53         3.0420   -1.8830    3.9650 hc        1 MOL      0.084883
    118 H54         0.4410   -3.6240    5.7070 hc        1 MOL      0.031100
    119 H55         1.6170   -2.3430    5.8910 hc        1 MOL      0.031100
    120 H56        -0.0290   -2.0370    6.4460 hc        1 MOL      0.031100
    121 N11         2.1640   -3.2390   -0.0320 n         1 MOL     -0.079690
    122 C40         3.0740   -3.9980   -0.9250 c3        1 MOL     -0.105351
    123 C41         4.5120   -4.1290   -0.3520 c         1 MOL      0.484172
    124 O16         4.8070   -3.2950    0.5590 o         1 MOL     -0.464515
    125 C42         3.0790   -3.4230   -2.3950 c3        1 MOL     -0.046916
    126 O17         3.2470   -2.0680   -2.3430 oh        1 MOL     -0.439585
    127 H57         2.1790   -2.2250   -0.0310 hn        1 MOL     -0.009971
    128 H58         2.7100   -5.0280   -0.9020 h1        1 MOL      0.079101
    129 H59         2.1300   -3.5890   -2.9080 h1        1 MOL      0.073588
    130 H60         3.9020   -3.9190   -2.8990 h1        1 MOL      0.073588
    131 H61         2.5240   -1.7490   -1.8040 ho        1 MOL      0.357023
    132 N12         5.4400   -4.9660   -0.8490 n         1 MOL     -0.358777
    133 C43         6.8160   -4.8350   -0.4460 c3        1 MOL     -0.029501
    134 C44         7.4290   -3.5370   -0.9850 c         1 MOL      0.504183
    135 O18         8.2950   -2.9920   -0.2380 o         1 MOL     -0.527392
    136 C45         7.6210   -6.0160   -0.8260 c3        1 MOL     -0.298491
    137 H62         5.2550   -5.6970   -1.5220 hn        1 MOL      0.273146
    138 H63         6.7830   -4.7590    0.6320 h1        1 MOL      0.144019
    139 H64         8.6730   -5.8310   -0.5830 hc        1 MOL      0.102806
    140 H65         7.3810   -6.9200   -0.2600 hc        1 MOL      0.102806
    141 H66         7.6640   -6.2900   -1.8730 hc        1 MOL      0.102806
    142 N13         7.0780   -3.0100   -2.1470 n         1 MOL     -0.426557
    143 C46         7.4260   -1.7070   -2.6740 c3        1 MOL      0.185779
    144 C47         6.9540   -0.5580   -1.7950 c         1 MOL      0.307059
    145 O19         7.5430    0.5240   -1.7760 o         1 MOL     -0.517766
    146 C48         6.9030   -1.5380   -4.1230 c3        1 MOL     -0.158647
    147 H67         6.3680   -3.4720   -2.6890 hn        1 MOL      0.272030
    148 H68         8.5180   -1.6860   -2.7660 h1        1 MOL      0.063843
    149 H69         7.0090   -2.5000   -4.6220 hc        1 MOL      0.048544
    150 H70         5.8460   -1.2440   -4.1400 hc        1 MOL      0.048544
    151 H71         7.4810   -0.7630   -4.6160 hc        1 MOL      0.048544
    152 N14         5.8790   -0.7590   -1.0140 n         1 MOL      0.009070
    153 C49         5.5120    0.2850   -0.0250 c3        1 MOL     -0.066888
    154 C50         6.3550    0.2000    1.2540 c         1 MOL      0.532801
    155 O20         6.6190    1.2600    1.8150 o         1 MOL     -0.563084
    156 C51         4.0110    0.2580    0.2580 c3        1 MOL      0.113555
    157 C52         3.3200    0.9280   -0.9030 c3        1 MOL     -0.066284
    158 C53         1.8030    0.7560   -0.7100 c         1 MOL      0.893723
    159 O21         0.9860    1.6720   -0.9720 o         1 MOL     -0.768174
    160 O22         1.3140   -0.3680   -0.5170 o         1 MOL     -0.768174
    161 H72         5.3110   -1.5870   -1.1090 hn        1 MOL      0.069033
    162 H73         5.7480    1.2810   -0.4240 h1        1 MOL      0.068787
    163 H74         3.8820    0.8990    1.1310 hc        1 MOL     -0.022688
    164 H75         3.6680   -0.7620    0.3830 hc        1 MOL     -0.022688
    165 H76         3.6670    0.3820   -1.7830 hc        1 MOL     -0.029279
    166 H77         3.5240    2.0030   -0.9340 hc        1 MOL     -0.029279
    167 N15         6.6770   -1.0100    1.7210 n         1 MOL     -0.265577
    168 C54         7.7630   -1.1100    2.7630 c3        1 MOL     -0.247038
    169 H78         7.7090   -0.2480    3.4280 h1        1 MOL      0.115386
    170 H79         7.6280   -2.0240    3.3430 h1        1 MOL      0.115386
    171 H80         8.7360   -1.1310    2.2740 h1        1 MOL      0.115386
    172 H81         6.3200   -1.7640    1.1580 hn        1 MOL      0.208008
    173 Ca1        -1.1490    0.2150   -1.4190 Ca        1 MOL      1.770300
    174 O23        -2.2860   -0.0880   -4.0070 oh        1 MOL     -0.825718
    175 H82        -2.2470    0.8590   -4.1450 ho        1 MOL      0.398188
    176 H83        -2.6830   -0.4310   -4.8050 ho        1 MOL      0.398188
    177 O24        -1.1680   -2.3800   -2.5270 oh        1 MOL     -0.825718
    178 H84        -1.1050   -3.3380   -2.4300 ho        1 MOL      0.398188
    179 H85        -1.2780   -2.2360   -3.4570 ho        1 MOL      0.398188
    180 O25         0.6470   -0.1940   -3.5620 oh        1 MOL     -0.825718
    181 H86         1.5430    0.0170   -3.8290 ho        1 MOL      0.398188
    182 H87         0.4090   -0.9560   -4.0930 ho        1 MOL      0.398188
@<TRIPOS>BOND
     1    1    2 1   
     2    1    4 1   
     3    1    5 1   
     4    1    6 1   
     5    2    3 2   
     6    2    7 1   
     7    7    8 1   
     8    7   15 1   
     9    8    9 1   
    10    8   11 1   
    11    8   16 1   
    12    9   10 2   
    13    9   19 1   
    14   11   12 1   
    15   11   17 1   
    16   11   18 1   
    17   12   13 1   
    18   12   14 1   
    19   19   20 1   
    20   19   28 1   
    21   20   21 1   
    22   20   23 1   
    23   20   29 1   
    24   21   22 2   
    25   21   41 1   
    26   23   24 1   
    27   23   30 1   
    28   23   31 1   
    29   24   25 1   
    30   24   32 1   
    31   24   33 1   
    32   25   26 1   
    33   25   34 1   
    34   25   35 1   
    35   26   27 1   
    36   26   36 1   
    37   26   37 1   
    38   27   38 1   
    39   27   39 1   
    40   27   40 1   
    41   41   42 1   
    42   41   49 1   
    43   42   43 1   
    44   42   45 1   
    45   42   50 1   
    46   43   44 2   
    47   43   53 1   
    48   45   46 1   
    49   45   51 1   
    50   45   52 1   
    51   46   47 1   
    52   46   48 1   
    53   53   54 1   
    54   53   57 1   
    55   54   55 1   
    56   54   58 1   
    57   54   59 1   
    58   55   56 2   
    59   55   60 1   
    60   60   61 1   
    61   60   68 1   
    62   61   62 1   
    63   61   64 1   
    64   61   69 1   
    65   62   63 2   
    66   62   74 1   
    67   64   65 1   
    68   64   70 1   
    69   64   71 1   
    70   65   66 1   
    71   65   67 2   
    72   66   72 1   
    73   66   73 1   
    74   74   75 1   
    75   74   78 1   
    76   75   76 1   
    77   75   79 1   
    78   75   80 1   
    79   76   77 2   
    80   76   81 1   
    81   81   82 1   
    82   81   93 1   
    83   82   83 1   
    84   82   85 1   
    85   82   94 1   
    86   83   84 2   
    87   83  102 1   
    88   85   86 1   
    89   85   95 1   
    90   85   96 1   
    91   86   87 ar  
    92   86   88 ar  
    93   87   89 ar  
    94   87   97 1   
    95   88   90 ar  
    96   88   98 1   
    97   89   91 ar  
    98   89   99 1   
    99   90   91 ar  
   100   90  100 1   
   101   91   92 1   
   102   92  101 1   
   103  102  103 1   
   104  102  110 1   
   105  103  104 1   
   106  103  106 1   
   107  103  111 1   
   108  104  105 2   
   109  104  121 1   
   110  106  107 1   
   111  106  108 1   
   112  106  112 1   
   113  107  109 1   
   114  107  113 1   
   115  107  114 1   
   116  108  115 1   
   117  108  116 1   
   118  108  117 1   
   119  109  118 1   
   120  109  119 1   
   121  109  120 1   
   122  121  122 1   
   123  121  127 1   
   124  122  123 1   
   125  122  125 1   
   126  122  128 1   
   127  123  124 2   
   128  123  132 1   
   129  125  126 1   
   130  125  129 1   
   131  125  130 1   
   132  126  131 1   
   133  132  133 1   
   134  132  137 1   
   135  133  134 1   
   136  133  136 1   
   137  133  138 1   
   138  134  135 2   
   139  134  142 1   
   140  136  139 1   
   141  136  140 1   
   142  136  141 1   
   143  142  143 1   
   144  142  147 1   
   145  143  144 1   
   146  143  146 1   
   147  143  148 1   
   148  144  145 2   
   149  144  152 1   
   150  146  149 1   
   151  146  150 1   
   152  146  151 1   
   153  152  153 1   
   154  152  161 1   
   155  153  154 1   
   156  153  156 1   
   157  153  162 1   
   158  154  155 2   
   159  154  167 1   
   160  156  157 1   
   161  156  163 1   
   162  156  164 1   
   163  157  158 1   
   164  157  165 1   
   165  157  166 1   
   166  158  159 1   
   167  158  160 1   
   168  167  168 1   
   169  167  172 1   
   170  168  169 1   
   171  168  170 1   
   172  168  171 1   
   173  174  175 1   
   174  174  176 1   
   175  177  178 1   
   176  177  179 1   
   177  180  181 1   
   178  180  182 1   
@<TRIPOS>SUBSTRUCTURE
     1 MOL         1 TEMP              0 ****  ****    0 ROOT
