@<TRIPOS>MOLECULE
MOL
  189   185     1     0     0
SMALL
resp


@<TRIPOS>ATOM
      1 C1          1.3890   -3.0470    6.4060 c3        1 MOL     -0.560078
      2 C2          1.5750   -2.9370    4.8960 c         1 MOL      0.754529
      3 O1          0.9960   -2.1020    4.2120 o         1 MOL     -0.578302
      4 H1          0.7580   -2.2290    6.7540 hc        1 MOL      0.147869
      5 H2          0.9150   -3.9980    6.6470 hc        1 MOL      0.147869
      6 H3          2.3610   -2.9890    6.8970 hc        1 MOL      0.147869
      7 N1          2.3850   -3.8090    4.2230 n         1 MOL     -0.703657
      8 C3          2.8580   -3.5870    2.8340 c3        1 MOL      0.441697
      9 C4          2.7870   -4.8690    1.9410 c         1 MOL      0.379588
     10 O2          3.0840   -5.9710    2.4220 o         1 MOL     -0.570785
     11 C5          4.2590   -2.8930    2.7570 c3        1 MOL     -0.208573
     12 C6          4.7040   -2.5270    1.3380 c         1 MOL      0.781305
     13 O3          3.8490   -2.0840    0.5610 o         1 MOL     -0.680781
     14 O4          5.9270   -2.8160    1.1180 o         1 MOL     -0.680781
     15 H4          2.7360   -4.5360    4.8200 hn        1 MOL      0.317211
     16 H5          2.2040   -2.9040    2.2940 h1        1 MOL     -0.037959
     17 H6          4.9980   -3.5870    3.1540 hc        1 MOL     -0.004962
     18 H7          4.3520   -1.9350    3.2780 hc        1 MOL     -0.004962
     19 N2          2.4900   -4.7140    0.6210 n         1 MOL      0.019572
     20 C7          2.3300   -5.8260   -0.4130 c3        1 MOL     -0.424821
     21 C8          3.0830   -5.3850   -1.6820 c         1 MOL      0.750679
     22 O5          3.3470   -6.2940   -2.4550 o         1 MOL     -0.619745
     23 C9          0.8180   -5.9200   -0.7320 c3        1 MOL      0.264256
     24 C10         0.5900   -7.2600   -1.5050 c3        1 MOL     -0.077470
     25 C11         0.2070   -4.8360   -1.6370 c3        1 MOL     -0.445710
     26 C12        -0.9030   -7.6240   -1.6870 c3        1 MOL     -0.102870
     27 H8          2.1020   -3.8360    0.3020 hn        1 MOL     -0.061851
     28 H9          2.8030   -6.7490   -0.0640 h1        1 MOL      0.174319
     29 H10         0.1900   -5.9740    0.1520 hc        1 MOL      0.012770
     30 H11         1.1280   -8.1040   -1.0560 hc        1 MOL      0.024871
     31 H12         0.9540   -7.0830   -2.5130 hc        1 MOL      0.024871
     32 H13        -0.8720   -4.8930   -1.4640 hc        1 MOL      0.147210
     33 H14         0.6620   -3.8560   -1.4720 hc        1 MOL      0.147210
     34 H15         0.5640   -5.0680   -2.6420 hc        1 MOL      0.147210
     35 H16        -1.3360   -6.9670   -2.4400 hc        1 MOL      0.014891
     36 H17        -1.0780   -8.6600   -1.9670 hc        1 MOL      0.014891
     37 H18        -1.3640   -7.4920   -0.7040 hc        1 MOL      0.014891
     38 N3          3.5390   -4.1290   -1.8990 n         1 MOL     -0.395596
     39 C13         4.0070   -3.6100   -3.2300 c3        1 MOL     -0.024255
     40 C14         5.2930   -2.7760   -3.2660 c         1 MOL      0.536309
     41 O6          5.8200   -2.6430   -4.3400 o         1 MOL     -0.573443
     42 C15         2.7830   -2.8780   -4.0130 c3        1 MOL     -0.068552
     43 C16         2.3230   -1.6230   -3.3340 c         1 MOL      0.691832
     44 O7          2.7400   -1.2560   -2.1760 o         1 MOL     -0.686413
     45 O8          1.3930   -0.9680   -3.8760 o         1 MOL     -0.686413
     46 H19         3.3890   -3.3820   -1.2470 hn        1 MOL      0.138081
     47 H20         4.2240   -4.4240   -3.9180 h1        1 MOL      0.072874
     48 H21         1.9430   -3.5370   -4.2370 hc        1 MOL      0.029562
     49 H22         3.1370   -2.5570   -4.9880 hc        1 MOL      0.029562
     50 N4          5.7510   -2.3410   -2.0730 n         1 MOL     -0.198401
     51 C17         7.0950   -1.8150   -1.8500 c3        1 MOL     -0.155457
     52 C18         7.3170   -0.2900   -1.9580 c         1 MOL      0.484167
     53 O9          8.5080    0.0510   -1.9070 o         1 MOL     -0.618808
     54 H23         5.1540   -2.5440   -1.2900 hn        1 MOL      0.116165
     55 H24         7.7820   -2.3200   -2.5400 h1        1 MOL      0.101322
     56 H25         7.4900   -1.9950   -0.8510 h1        1 MOL      0.101322
     57 N5          6.3110    0.5190   -2.1410 n         1 MOL     -0.118737
     58 C19         6.4570    1.9310   -2.5220 c3        1 MOL     -0.071982
     59 C20         6.6770    2.9760   -1.3770 c         1 MOL      0.430583
     60 O10         6.6220    4.2030   -1.5790 o         1 MOL     -0.506130
     61 C21         5.1420    2.2200   -3.2590 c3        1 MOL     -0.245954
     62 C22         3.8630    2.0740   -2.3670 c         1 MOL      0.770985
     63 O11         3.9010    1.7420   -1.1520 o         1 MOL     -0.689300
     64 O12         2.7890    2.4110   -2.9170 o         1 MOL     -0.689300
     65 H26         5.3660    0.1780   -2.2360 hn        1 MOL      0.113267
     66 H27         7.3150    1.9550   -3.1960 h1        1 MOL      0.113840
     67 H28         5.1320    1.4500   -4.0250 hc        1 MOL      0.076982
     68 H29         5.1790    3.2200   -3.6770 hc        1 MOL      0.076982
     69 N6          6.8220    2.6170   -0.0900 n         1 MOL     -0.354853
     70 C23         6.8870    3.5920    0.9790 c3        1 MOL     -0.103344
     71 C24         5.6580    4.4480    1.2430 c         1 MOL      0.488067
     72 O13         5.8430    5.5560    1.7890 o         1 MOL     -0.577963
     73 H30         6.7270    1.6310    0.0800 hn        1 MOL      0.274149
     74 H31         7.7020    4.2860    0.7570 h1        1 MOL      0.087359
     75 H32         7.1690    3.1970    1.9640 h1        1 MOL      0.087359
     76 N7          4.4740    3.9580    0.8490 n         1 MOL     -0.306353
     77 C25         3.1510    4.5370    1.1250 c3        1 MOL     -0.047302
     78 C26         2.1380    3.4310    1.5420 c         1 MOL      0.590342
     79 O14         2.0260    2.4170    0.9150 o         1 MOL     -0.567585
     80 C27         2.5910    5.2940   -0.0400 c3        1 MOL     -0.087977
     81 C28         3.3490    6.5690   -0.3170 c3        1 MOL     -0.129729
     82 C29         2.7800    7.5880   -1.3100 c         1 MOL      0.590909
     83 N8          2.4340    7.2830   -2.6180 n         1 MOL     -0.794148
     84 O15         2.6450    8.7420   -0.8840 o         1 MOL     -0.568645
     85 H33         4.4780    3.1040    0.3140 hn        1 MOL      0.294905
     86 H34         3.2560    5.1310    2.0380 h1        1 MOL      0.063541
     87 H35         1.5780    5.5530    0.2380 hc        1 MOL      0.081685
     88 H36         2.4260    4.7010   -0.9470 hc        1 MOL      0.081685
     89 H37         4.3160    6.4320   -0.8270 hc        1 MOL      0.079950
     90 H38         3.5290    7.1220    0.6070 hc        1 MOL      0.079950
     91 H39         2.7260    6.3740   -2.9520 hn        1 MOL      0.360028
     92 H40         2.3660    8.0750   -3.2370 hn        1 MOL      0.360028
     93 N9          1.2450    3.6450    2.5460 n         1 MOL     -0.566674
     94 C30         0.0110    2.7890    2.6730 c3        1 MOL      0.131229
     95 C31        -1.0970    3.2340    1.7130 c         1 MOL      0.466305
     96 O16        -1.3880    4.4580    1.6810 o         1 MOL     -0.601708
     97 C32        -0.5520    2.8540    4.1080 c3        1 MOL      0.118768
     98 C33        -1.9440    2.2670    4.2470 c3        1 MOL     -0.286478
     99 C34         0.2820    1.9860    5.0550 c3        1 MOL     -0.286478
    100 H41         1.2390    4.4900    3.0910 hn        1 MOL      0.308429
    101 H42         0.1070    1.7320    2.4350 h1        1 MOL      0.099842
    102 H43        -0.4750    3.9210    4.3120 hc        1 MOL      0.005641
    103 H44        -1.9680    1.2300    3.8970 hc        1 MOL      0.064944
    104 H45        -2.2990    2.1820    5.2730 hc        1 MOL      0.064944
    105 H46        -2.7190    2.8330    3.7330 hc        1 MOL      0.064944
    106 H47        -0.0060    2.1570    6.0910 hc        1 MOL      0.064944
    107 H48         0.2030    0.9270    4.8280 hc        1 MOL      0.064944
    108 H49         1.3070    2.3700    5.0530 hc        1 MOL      0.064944
    109 N10        -1.8120    2.2800    1.0520 n         1 MOL     -0.048282
    110 C35        -2.9960    2.5810    0.2430 c3        1 MOL      0.197660
    111 C36        -4.2740    2.0960    1.0470 c         1 MOL      0.256627
    112 O17        -4.1470    1.2510    1.9270 o         1 MOL     -0.353481
    113 C37        -2.8360    1.6740   -0.9500 c3        1 MOL     -0.456275
    114 C38        -3.8870    1.9200   -2.0110 c         1 MOL      0.852353
    115 N11        -3.9670    3.1390   -2.5220 n         1 MOL     -0.846464
    116 O18        -4.6250    1.0850   -2.4790 o         1 MOL     -0.519347
    117 H50        -1.4410    1.3340    1.0680 hn        1 MOL     -0.050079
    118 H51        -3.0420    3.6400   -0.0250 h1        1 MOL     -0.011382
    119 H52        -3.0140    0.6590   -0.5930 hc        1 MOL      0.172587
    120 H53        -1.8600    1.7550   -1.4320 hc        1 MOL      0.172587
    121 H54        -3.4840    3.9080   -2.1040 hn        1 MOL      0.360397
    122 H55        -4.5590    3.4300   -3.2930 hn        1 MOL      0.360397
    123 N12        -5.4580    2.5570    0.6600 n         1 MOL     -0.305563
    124 C39        -6.6340    1.9220    1.2240 c3        1 MOL      0.092917
    125 C40        -6.7630    0.3380    0.9890 c         1 MOL      0.489155
    126 O19        -7.2250   -0.3690    1.9000 o         1 MOL     -0.585363
    127 C41        -7.8400    2.6370    0.5970 c3        1 MOL     -0.088235
    128 C42        -8.2710    2.2660   -0.8140 ca        1 MOL      0.073775
    129 C43        -9.2600    1.2760   -0.9130 ca        1 MOL     -0.174964
    130 C44        -7.7300    2.8910   -1.9680 ca        1 MOL     -0.174964
    131 C45        -9.7700    0.8710   -2.1600 ca        1 MOL     -0.298655
    132 C46        -8.1820    2.3960   -3.2440 ca        1 MOL     -0.298655
    133 C47        -9.1720    1.3570   -3.3190 ca        1 MOL      0.345215
    134 O20        -9.6050    1.0460   -4.5570 oh        1 MOL     -0.470720
    135 H56        -5.5620    3.2610   -0.0600 hn        1 MOL      0.218923
    136 H57        -6.7170    2.1240    2.2940 h1        1 MOL      0.080127
    137 H58        -7.5890    3.6850    0.4670 hc        1 MOL      0.008916
    138 H59        -8.6900    2.5610    1.2840 hc        1 MOL      0.008916
    139 H60        -9.6790    0.9540    0.0250 ha        1 MOL      0.130660
    140 H61        -6.8630    3.5340   -1.8880 ha        1 MOL      0.130660
    141 H62       -10.5000    0.0830   -2.2880 ha        1 MOL      0.168863
    142 H63        -7.7830    2.6850   -4.2060 ha        1 MOL      0.168863
    143 H64       -10.1710    0.2770   -4.5950 ho        1 MOL      0.367259
    144 N13        -6.1680   -0.2000   -0.0800 n         1 MOL     -0.018322
    145 C48        -6.0190   -1.6110   -0.3090 c3        1 MOL     -0.236599
    146 C49        -5.0410   -2.3510    0.6190 c         1 MOL      0.464365
    147 O21        -4.8640   -3.5760    0.5320 o         1 MOL     -0.558556
    148 C50        -5.8100   -1.9020   -1.8200 c3        1 MOL      0.138399
    149 C51        -7.0020   -1.3670   -2.6510 c3        1 MOL     -0.214784
    150 C52        -7.0540   -1.7270   -4.1480 c         1 MOL      0.764097
    151 O22        -6.1480   -1.3520   -4.9360 o         1 MOL     -0.746305
    152 O23        -8.0670   -2.3030   -4.6350 o         1 MOL     -0.746305
    153 H65        -5.7740    0.4150   -0.7910 hn        1 MOL      0.109041
    154 H66        -6.9920   -2.0750   -0.1210 h1        1 MOL      0.123711
    155 H67        -5.6450   -2.9570   -2.0380 hc        1 MOL      0.010065
    156 H68        -4.8670   -1.4600   -2.1530 hc        1 MOL      0.010065
    157 H69        -7.0820   -0.2830   -2.5600 hc        1 MOL      0.006015
    158 H70        -7.8480   -1.7950   -2.1120 hc        1 MOL      0.006015
    159 N14        -4.4960   -1.6710    1.6390 n         1 MOL     -0.070678
    160 C53        -3.5690   -2.1530    2.6940 c3        1 MOL     -0.266532
    161 C54        -3.9640   -1.7180    4.1430 c         1 MOL      0.515590
    162 O24        -3.3220   -2.1130    5.0950 o         1 MOL     -0.544584
    163 C55        -2.1770   -1.6280    2.4580 c3        1 MOL      0.045999
    164 C56        -1.5440   -2.2150    1.1770 c3        1 MOL     -0.327269
    165 C57        -0.2700   -1.3990    0.8750 c         1 MOL      0.546656
    166 O25        -0.3130   -0.1530    0.9090 o         1 MOL     -0.551139
    167 O26         0.7110   -1.9970    0.3830 o         1 MOL     -0.551139
    168 H71        -4.6840   -0.6730    1.6610 hn        1 MOL     -0.103881
    169 H72        -3.4820   -3.2360    2.7830 h1        1 MOL      0.148635
    170 H73        -1.6310   -1.8410    3.3770 hc        1 MOL      0.100038
    171 H74        -2.2930   -0.5430    2.3330 hc        1 MOL      0.100038
    172 H75        -2.1930   -2.0150    0.3360 hc        1 MOL      0.131675
    173 H76        -1.3740   -3.2870    1.2200 hc        1 MOL      0.131675
    174 N15        -5.0260   -0.9500    4.3000 n         1 MOL     -0.274044
    175 C58        -5.3800   -0.4450    5.7060 c3        1 MOL     -0.097353
    176 H77        -5.8010    0.5580    5.6360 h1        1 MOL      0.062169
    177 H78        -6.1100   -1.1150    6.1600 h1        1 MOL      0.062169
    178 H79        -4.4800   -0.4190    6.3200 h1        1 MOL      0.062169
    179 H80        -5.3390   -0.4540    3.4690 hn        1 MOL      0.243211
    180 Ca1         2.4320    0.0280    0.0810 Ca        1 MOL      1.738915
    181 O27         4.5950    0.8530    1.6630 oh        1 MOL     -0.953053
    182 H81         4.1500    0.8360    2.5120 ho        1 MOL      0.440591
    183 H82         5.5130    0.7040    1.8650 ho        1 MOL      0.440591
    184 O28         2.2680    0.0990    2.9230 oh        1 MOL     -0.953053
    185 H83         1.7200   -0.5730    3.3340 ho        1 MOL      0.440591
    186 H84         2.5430    0.6550    3.6590 ho        1 MOL      0.440591
    187 O29         1.0210    0.9080   -2.0000 oh        1 MOL     -0.953053
    188 H85         1.2040    0.1530   -2.5640 ho        1 MOL      0.440591
    189 H86         1.4500    1.6390   -2.4460 ho        1 MOL      0.440591
@<TRIPOS>BOND
     1    1    2 1   
     2    1    4 1   
     3    1    5 1   
     4    1    6 1   
     5    2    3 2   
     6    2    7 1   
     7    7    8 1   
     8    7   15 1   
     9    8    9 1   
    10    8   11 1   
    11    8   16 1   
    12    9   10 2   
    13    9   19 1   
    14   11   12 1   
    15   11   17 1   
    16   11   18 1   
    17   12   13 1   
    18   12   14 1   
    19   19   20 1   
    20   19   27 1   
    21   20   21 1   
    22   20   23 1   
    23   20   28 1   
    24   21   22 2   
    25   21   38 1   
    26   23   24 1   
    27   23   25 1   
    28   23   29 1   
    29   24   26 1   
    30   24   30 1   
    31   24   31 1   
    32   25   32 1   
    33   25   33 1   
    34   25   34 1   
    35   26   35 1   
    36   26   36 1   
    37   26   37 1   
    38   38   39 1   
    39   38   46 1   
    40   39   40 1   
    41   39   42 1   
    42   39   47 1   
    43   40   41 2   
    44   40   50 1   
    45   42   43 1   
    46   42   48 1   
    47   42   49 1   
    48   43   44 1   
    49   43   45 1   
    50   50   51 1   
    51   50   54 1   
    52   51   52 1   
    53   51   55 1   
    54   51   56 1   
    55   52   53 2   
    56   52   57 1   
    57   57   58 1   
    58   57   65 1   
    59   58   59 1   
    60   58   61 1   
    61   58   66 1   
    62   59   60 2   
    63   59   69 1   
    64   61   62 1   
    65   61   67 1   
    66   61   68 1   
    67   62   63 1   
    68   62   64 1   
    69   69   70 1   
    70   69   73 1   
    71   70   71 1   
    72   70   74 1   
    73   70   75 1   
    74   71   72 2   
    75   71   76 1   
    76   76   77 1   
    77   76   85 1   
    78   77   78 1   
    79   77   80 1   
    80   77   86 1   
    81   78   79 2   
    82   78   93 1   
    83   80   81 1   
    84   80   87 1   
    85   80   88 1   
    86   81   82 1   
    87   81   89 1   
    88   81   90 1   
    89   82   83 1   
    90   82   84 2   
    91   83   91 1   
    92   83   92 1   
    93   93   94 1   
    94   93  100 1   
    95   94   95 1   
    96   94   97 1   
    97   94  101 1   
    98   95   96 2   
    99   95  109 1   
   100   97   98 1   
   101   97   99 1   
   102   97  102 1   
   103   98  103 1   
   104   98  104 1   
   105   98  105 1   
   106   99  106 1   
   107   99  107 1   
   108   99  108 1   
   109  109  110 1   
   110  109  117 1   
   111  110  111 1   
   112  110  113 1   
   113  110  118 1   
   114  111  112 2   
   115  111  123 1   
   116  113  114 1   
   117  113  119 1   
   118  113  120 1   
   119  114  115 1   
   120  114  116 2   
   121  115  121 1   
   122  115  122 1   
   123  123  124 1   
   124  123  135 1   
   125  124  125 1   
   126  124  127 1   
   127  124  136 1   
   128  125  126 2   
   129  125  144 1   
   130  127  128 1   
   131  127  137 1   
   132  127  138 1   
   133  128  129 ar  
   134  128  130 ar  
   135  129  131 ar  
   136  129  139 1   
   137  130  132 ar  
   138  130  140 1   
   139  131  133 ar  
   140  131  141 1   
   141  132  133 ar  
   142  132  142 1   
   143  133  134 1   
   144  134  143 1   
   145  144  145 1   
   146  144  153 1   
   147  145  146 1   
   148  145  148 1   
   149  145  154 1   
   150  146  147 2   
   151  146  159 1   
   152  148  149 1   
   153  148  155 1   
   154  148  156 1   
   155  149  150 1   
   156  149  157 1   
   157  149  158 1   
   158  150  151 1   
   159  150  152 1   
   160  159  160 1   
   161  159  168 1   
   162  160  161 1   
   163  160  163 1   
   164  160  169 1   
   165  161  162 2   
   166  161  174 1   
   167  163  164 1   
   168  163  170 1   
   169  163  171 1   
   170  164  165 1   
   171  164  172 1   
   172  164  173 1   
   173  165  166 1   
   174  165  167 1   
   175  174  175 1   
   176  174  179 1   
   177  175  176 1   
   178  175  177 1   
   179  175  178 1   
   180  181  182 1   
   181  181  183 1   
   182  184  185 1   
   183  184  186 1   
   184  187  188 1   
   185  187  189 1   
@<TRIPOS>SUBSTRUCTURE
     1 MOL         1 TEMP              0 ****  ****    0 ROOT
