@<TRIPOS>MOLECULE
MOL
  186   183     1     0     0
SMALL
resp


@<TRIPOS>ATOM
      1 C1          0.5400   -2.2470    6.2100 c3        1 MOL     -0.321009
      2 C2          1.0070   -2.2690    4.7060 c         1 MOL      0.824896
      3 O1          0.3300   -2.7670    3.8390 o         1 MOL     -0.678373
      4 H1         -0.1060   -3.1040    6.4020 hc        1 MOL      0.074715
      5 H2          1.4120   -2.2970    6.8620 hc        1 MOL      0.074715
      6 H3         -0.0090   -1.3260    6.4070 hc        1 MOL      0.074715
      7 N1          2.1160   -1.7340    4.3230 n         1 MOL     -0.718558
      8 C3          2.6660   -1.7790    2.9420 c3        1 MOL      0.503098
      9 C4          3.1770   -3.0910    2.3770 c         1 MOL      0.300922
     10 O2          4.0920   -3.7540    2.9460 o         1 MOL     -0.538150
     11 C5          3.8120   -0.7490    2.8770 c3        1 MOL     -0.467376
     12 C6          4.5380   -0.6770    1.6060 c         1 MOL      0.825439
     13 O3          5.7190   -0.2990    1.5830 o         1 MOL     -0.691641
     14 O4          3.8950   -0.8980    0.5470 o         1 MOL     -0.691641
     15 H4          2.6960   -1.3510    5.0570 hn        1 MOL      0.315452
     16 H5          1.9330   -1.3870    2.2370 h1        1 MOL     -0.047195
     17 H6          4.5540   -0.9770    3.6470 hc        1 MOL      0.090993
     18 H7          3.3660    0.2490    2.9360 hc        1 MOL      0.090993
     19 N2          2.6760   -3.5160    1.1920 n         1 MOL     -0.099269
     20 C7          2.8640   -4.9090    0.7350 c3        1 MOL     -0.213815
     21 C8          3.9180   -5.0000   -0.4590 c         1 MOL      0.593556
     22 O5          4.7880   -5.8290   -0.3700 o         1 MOL     -0.596875
     23 C9          1.4630   -5.5290    0.4050 c3        1 MOL      0.183066
     24 C10         0.4360   -5.5220    1.5950 c3        1 MOL      0.100680
     25 C11         1.6000   -6.9930   -0.1240 c3        1 MOL     -0.250115
     26 C12        -0.8640   -6.2150    1.2550 c3        1 MOL     -0.216327
     27 H8          1.9130   -3.0520    0.7340 hn        1 MOL      0.077934
     28 H9          3.2840   -5.4750    1.5670 h1        1 MOL      0.098549
     29 H10         1.0820   -4.9690   -0.4470 hc        1 MOL      0.010661
     30 H11         0.1250   -4.5160    1.8720 hc        1 MOL      0.011270
     31 H12         0.7720   -6.1240    2.4440 hc        1 MOL      0.011270
     32 H13         0.6900   -7.2870   -0.6450 hc        1 MOL      0.042804
     33 H14         2.4680   -7.1360   -0.7770 hc        1 MOL      0.042804
     34 H15         1.6280   -7.6830    0.7230 hc        1 MOL      0.042804
     35 H16        -1.5310   -6.0970    2.1050 hc        1 MOL      0.044708
     36 H17        -1.3140   -5.6960    0.4030 hc        1 MOL      0.044708
     37 H18        -0.7360   -7.2860    1.1100 hc        1 MOL      0.044708
     38 N3          3.9420   -4.1040   -1.4400 n         1 MOL     -0.442703
     39 C13         5.0030   -4.0870   -2.4770 c3        1 MOL      0.170492
     40 C14         6.2980   -3.3840   -1.9910 c         1 MOL      0.402783
     41 O6          7.3130   -3.6590   -2.6410 o         1 MOL     -0.565673
     42 C15         4.4250   -3.2960   -3.7130 c3        1 MOL     -0.541476
     43 C16         3.4750   -2.0870   -3.3620 c         1 MOL      0.818666
     44 O7          2.9320   -1.4700   -4.3230 o         1 MOL     -0.695333
     45 O8          3.3270   -1.7030   -2.1610 o         1 MOL     -0.695333
     46 H19         3.4220   -3.2570   -1.2840 hn        1 MOL      0.307834
     47 H20         5.2610   -5.1220   -2.6960 h1        1 MOL      0.082690
     48 H21         3.8240   -4.0350   -4.2430 hc        1 MOL      0.141821
     49 H22         5.2860   -2.8720   -4.2330 hc        1 MOL      0.141821
     50 N4          6.3570   -2.7000   -0.8310 n         1 MOL     -0.160553
     51 C17         7.6650   -2.2170   -0.4070 c3        1 MOL     -0.349368
     52 C18         7.9980   -0.8140   -0.8470 c         1 MOL      0.576892
     53 O9          9.1160   -0.3070   -0.7600 o         1 MOL     -0.606329
     54 H23         5.4970   -2.4540   -0.3760 hn        1 MOL      0.236182
     55 H24         8.4830   -2.8630   -0.7350 h1        1 MOL      0.150848
     56 H25         7.6130   -2.2530    0.6910 h1        1 MOL      0.150848
     57 N5          6.9410   -0.1240   -1.2880 n         1 MOL     -0.230971
     58 C19         7.1560    1.2820   -1.6840 c3        1 MOL     -0.021117
     59 C20         7.0330    2.4330   -0.6060 c         1 MOL      0.431000
     60 O10         7.4290    3.5930   -0.8300 o         1 MOL     -0.572688
     61 C21         6.1500    1.7570   -2.8210 c3        1 MOL     -0.189091
     62 C22         4.7220    1.8440   -2.3880 c         1 MOL      0.846912
     63 O11         3.8550    2.1860   -3.2030 o         1 MOL     -0.740083
     64 O12         4.3840    1.5460   -1.2470 o         1 MOL     -0.740083
     65 H26         5.9770   -0.4180   -1.1950 hn        1 MOL      0.171084
     66 H27         8.1540    1.3550   -2.1180 h1        1 MOL      0.101376
     67 H28         6.1840    1.0190   -3.6110 hc        1 MOL      0.039224
     68 H29         6.4790    2.7340   -3.1790 hc        1 MOL      0.039224
     69 N6          6.6430    2.0450    0.6040 n         1 MOL     -0.130120
     70 C23         6.6360    2.8820    1.8360 c3        1 MOL     -0.077758
     71 C24         5.4820    3.8620    1.9880 c         1 MOL      0.594436
     72 O13         5.6970    4.9060    2.6380 o         1 MOL     -0.593396
     73 H30         6.4150    1.0720    0.7780 hn        1 MOL      0.204796
     74 H31         7.5450    3.4860    1.8130 h1        1 MOL      0.038060
     75 H32         6.6550    2.2880    2.7450 h1        1 MOL      0.038060
     76 N7          4.3940    3.4560    1.3290 n         1 MOL     -0.530698
     77 C25         3.0860    4.1230    1.3330 c3        1 MOL      0.298006
     78 C26         1.9730    3.0970    1.4900 c         1 MOL      0.616614
     79 O14         2.1320    1.9510    0.9800 o         1 MOL     -0.657425
     80 C27         3.0750    4.9760    0.0070 c3        1 MOL     -0.380800
     81 C28         4.2790    5.9270   -0.0080 c3        1 MOL      0.018462
     82 C29         4.2250    7.0930   -1.0470 c         1 MOL      0.665900
     83 N8          4.9030    8.2130   -0.7890 n         1 MOL     -0.803503
     84 O15         3.5350    6.9730   -2.0460 o         1 MOL     -0.551317
     85 H33         4.4020    2.6640    0.6920 hn        1 MOL      0.351758
     86 H34         3.0570    4.7370    2.2290 h1        1 MOL     -0.016414
     87 H35         2.1300    5.5180   -0.0170 hc        1 MOL      0.111877
     88 H36         3.1470    4.3090   -0.8460 hc        1 MOL      0.111877
     89 H37         5.2500    5.4570   -0.1100 hc        1 MOL      0.009012
     90 H38         4.2450    6.3720    0.9820 hc        1 MOL      0.009012
     91 H39         5.4110    8.1690    0.0770 hn        1 MOL      0.347445
     92 H40         4.6200    9.1060   -1.1650 hn        1 MOL      0.347445
     93 N9          0.7370    3.4900    1.9560 n         1 MOL     -0.670842
     94 C30        -0.4210    2.5620    2.1500 c3        1 MOL      0.063418
     95 C31        -1.6180    3.0700    1.3380 c         1 MOL      0.602528
     96 O16        -2.1100    4.1490    1.6350 o         1 MOL     -0.588665
     97 C32        -0.7030    2.4480    3.6230 c3        1 MOL      0.201164
     98 C33        -2.0430    1.6710    3.8650 c3        1 MOL     -0.342237
     99 C34         0.3760    1.6230    4.1220 c3        1 MOL     -0.342237
    100 H41         0.6060    4.4850    2.0590 hn        1 MOL      0.333252
    101 H42        -0.2810    1.5480    1.7750 h1        1 MOL      0.159193
    102 H43        -0.8080    3.4040    4.1490 hc        1 MOL      0.005088
    103 H44        -2.8910    2.2220    3.4630 hc        1 MOL      0.074129
    104 H45        -2.0720    0.6870    3.4070 hc        1 MOL      0.074129
    105 H46        -2.1120    1.4260    4.9210 hc        1 MOL      0.074129
    106 H47         1.3510    1.9730    3.7640 hc        1 MOL      0.074129
    107 H48         0.3950    1.6630    5.2130 hc        1 MOL      0.074129
    108 H49         0.3410    0.5720    3.8190 hc        1 MOL      0.074129
    109 N10        -1.9350    2.3530    0.2450 n         1 MOL     -0.348449
    110 C35        -3.1450    2.5670   -0.5610 c3        1 MOL      0.046742
    111 C36        -4.4090    2.0810    0.0660 c         1 MOL      0.479688
    112 O17        -4.3700    1.0940    0.8220 o         1 MOL     -0.464805
    113 C37        -2.9170    1.7870   -1.8730 c3        1 MOL     -0.173710
    114 C38        -3.7790    2.2540   -3.0420 c         1 MOL      0.631593
    115 N11        -3.2300    2.7870   -4.0920 n         1 MOL     -0.801152
    116 O18        -5.0160    2.1690   -3.1180 o         1 MOL     -0.514226
    117 H50        -1.4200    1.5310   -0.0220 hn        1 MOL      0.263288
    118 H51        -3.3230    3.6200   -0.7320 h1        1 MOL      0.033262
    119 H52        -2.9890    0.7070   -1.7430 hc        1 MOL      0.045086
    120 H53        -1.8700    1.9970   -2.1060 hc        1 MOL      0.045086
    121 H54        -2.2290    2.9200   -4.0590 hn        1 MOL      0.378708
    122 H55        -3.6960    2.7220   -4.9910 hn        1 MOL      0.378708
    123 N12        -5.5430    2.6230   -0.4000 n         1 MOL     -0.508610
    124 C39        -6.8230    2.0230   -0.0230 c3        1 MOL      0.150742
    125 C40        -6.9270    0.5190   -0.2500 c         1 MOL      0.570519
    126 O19        -7.4690   -0.2260    0.5880 o         1 MOL     -0.528230
    127 C41        -8.0240    2.6380   -0.8010 c3        1 MOL     -0.299323
    128 C42        -9.4220    2.0210   -0.4640 ca        1 MOL      0.093981
    129 C43        -9.9840    2.3610    0.7830 ca        1 MOL     -0.176221
    130 C44       -10.1890    1.3020   -1.3320 ca        1 MOL     -0.176221
    131 C45       -11.3500    1.9270    1.0990 ca        1 MOL     -0.282063
    132 C46       -11.4940    0.8630   -1.0540 ca        1 MOL     -0.282063
    133 C47       -12.0240    1.1670    0.1770 ca        1 MOL      0.428585
    134 O20       -13.3860    0.9220    0.3160 oh        1 MOL     -0.600848
    135 H56        -5.4530    3.3920   -1.0510 hn        1 MOL      0.310616
    136 H57        -6.9940    2.2290    1.0320 h1        1 MOL      0.061891
    137 H58        -7.7730    2.4940   -1.8540 hc        1 MOL      0.104096
    138 H59        -8.0900    3.7020   -0.6200 hc        1 MOL      0.104096
    139 H60        -9.3490    2.8300    1.5340 ha        1 MOL      0.146480
    140 H61        -9.7840    1.0350   -2.3030 ha        1 MOL      0.146480
    141 H62       -11.8940    2.2710    1.9690 ha        1 MOL      0.150110
    142 H63       -12.0350    0.1960   -1.7000 ha        1 MOL      0.150110
    143 H64       -13.7870    0.5290   -0.4620 ho        1 MOL      0.392574
    144 N13        -6.3110   -0.0090   -1.2560 n         1 MOL     -0.222631
    145 C48        -6.0200   -1.5160   -1.5210 c3        1 MOL     -0.283592
    146 C49        -5.4160   -2.2520   -0.2490 c         1 MOL      0.472326
    147 O21        -5.7560   -3.4080    0.0630 o         1 MOL     -0.491633
    148 C50        -5.0250   -1.5060   -2.7540 c3        1 MOL      0.168856
    149 C51        -5.0090   -2.8850   -3.3700 c3        1 MOL     -0.343350
    150 C52        -6.3260   -3.1400   -4.1270 c         1 MOL      0.777452
    151 O22        -6.9570   -2.2090   -4.6360 o         1 MOL     -0.750157
    152 O23        -6.6790   -4.3380   -4.3200 o         1 MOL     -0.750157
    153 H65        -5.8800    0.6310   -1.9040 hn        1 MOL      0.115016
    154 H66        -6.9240   -1.9950   -1.8890 h1        1 MOL      0.181178
    155 H67        -4.0230   -1.2550   -2.4180 hc        1 MOL      0.011455
    156 H68        -5.1510   -0.7080   -3.4910 hc        1 MOL      0.011455
    157 H69        -4.9230   -3.6740   -2.6270 hc        1 MOL      0.052747
    158 H70        -4.1230   -2.9200   -4.0060 hc        1 MOL      0.052747
    159 N14        -4.3740   -1.5700    0.3710 n         1 MOL     -0.243102
    160 C53        -3.5910   -2.0410    1.5410 c3        1 MOL     -0.236714
    161 C54        -4.4530   -1.8610    2.8300 c         1 MOL      0.483421
    162 O24        -4.2740   -2.5490    3.8200 o         1 MOL     -0.570335
    163 C55        -2.1580   -1.4200    1.6070 c3        1 MOL      0.090025
    164 C56        -1.4030   -2.0690    0.4030 c3        1 MOL     -0.089480
    165 C57        -0.1790   -1.3140   -0.0540 c         1 MOL      0.857019
    166 O25         0.9080   -1.8270   -0.4170 o         1 MOL     -0.787013
    167 O26        -0.2680   -0.0760   -0.0850 o         1 MOL     -0.787013
    168 H71        -4.2130   -0.6430    0.0230 hn        1 MOL      0.362405
    169 H72        -3.4580   -3.1190    1.4370 h1        1 MOL      0.137844
    170 H73        -1.6470   -1.7660    2.5120 hc        1 MOL      0.058333
    171 H74        -2.2170   -0.3320    1.6100 hc        1 MOL      0.058333
    172 H75        -1.9330   -1.9680   -0.5380 hc        1 MOL      0.002185
    173 H76        -1.2530   -3.1320    0.5460 hc        1 MOL      0.002185
    174 N15        -5.4570   -0.9800    2.7870 n         1 MOL     -0.026189
    175 C58        -6.3230   -0.5390    3.8930 c3        1 MOL     -0.303615
    176 H77        -6.9390   -1.3740    4.2260 h1        1 MOL      0.098825
    177 H78        -5.7060   -0.1910    4.7210 h1        1 MOL      0.098825
    178 H79        -6.9650    0.2720    3.5510 h1        1 MOL      0.098825
    179 H80        -5.7060   -0.6060    1.8790 hn        1 MOL      0.013195
    180 Ca1         2.2610    0.2990   -1.0060 Ca        1 MOL      1.752448
    181 O27         1.6210    2.6810   -2.0090 oh        1 MOL     -0.874534
    182 H81         0.8580    3.1080   -2.3860 ho        1 MOL      0.394914
    183 H82         2.2530    2.6430   -2.7250 ho        1 MOL      0.394914
    184 O28         0.8080   -0.1170   -3.2160 oh        1 MOL     -0.874534
    185 H83         0.1020    0.0520   -3.8350 ho        1 MOL      0.394914
    186 H84         1.4450   -0.6350   -3.7090 ho        1 MOL      0.394914
@<TRIPOS>BOND
     1    1    2 1   
     2    1    4 1   
     3    1    5 1   
     4    1    6 1   
     5    2    3 2   
     6    2    7 1   
     7    7    8 1   
     8    7   15 1   
     9    8    9 1   
    10    8   11 1   
    11    8   16 1   
    12    9   10 2   
    13    9   19 1   
    14   11   12 1   
    15   11   17 1   
    16   11   18 1   
    17   12   13 1   
    18   12   14 1   
    19   19   20 1   
    20   19   27 1   
    21   20   21 1   
    22   20   23 1   
    23   20   28 1   
    24   21   22 2   
    25   21   38 1   
    26   23   24 1   
    27   23   25 1   
    28   23   29 1   
    29   24   26 1   
    30   24   30 1   
    31   24   31 1   
    32   25   32 1   
    33   25   33 1   
    34   25   34 1   
    35   26   35 1   
    36   26   36 1   
    37   26   37 1   
    38   38   39 1   
    39   38   46 1   
    40   39   40 1   
    41   39   42 1   
    42   39   47 1   
    43   40   41 2   
    44   40   50 1   
    45   42   43 1   
    46   42   48 1   
    47   42   49 1   
    48   43   44 1   
    49   43   45 1   
    50   50   51 1   
    51   50   54 1   
    52   51   52 1   
    53   51   55 1   
    54   51   56 1   
    55   52   53 2   
    56   52   57 1   
    57   57   58 1   
    58   57   65 1   
    59   58   59 1   
    60   58   61 1   
    61   58   66 1   
    62   59   60 2   
    63   59   69 1   
    64   61   62 1   
    65   61   67 1   
    66   61   68 1   
    67   62   63 1   
    68   62   64 1   
    69   69   70 1   
    70   69   73 1   
    71   70   71 1   
    72   70   74 1   
    73   70   75 1   
    74   71   72 2   
    75   71   76 1   
    76   76   77 1   
    77   76   85 1   
    78   77   78 1   
    79   77   80 1   
    80   77   86 1   
    81   78   79 2   
    82   78   93 1   
    83   80   81 1   
    84   80   87 1   
    85   80   88 1   
    86   81   82 1   
    87   81   89 1   
    88   81   90 1   
    89   82   83 1   
    90   82   84 2   
    91   83   91 1   
    92   83   92 1   
    93   93   94 1   
    94   93  100 1   
    95   94   95 1   
    96   94   97 1   
    97   94  101 1   
    98   95   96 2   
    99   95  109 1   
   100   97   98 1   
   101   97   99 1   
   102   97  102 1   
   103   98  103 1   
   104   98  104 1   
   105   98  105 1   
   106   99  106 1   
   107   99  107 1   
   108   99  108 1   
   109  109  110 1   
   110  109  117 1   
   111  110  111 1   
   112  110  113 1   
   113  110  118 1   
   114  111  112 2   
   115  111  123 1   
   116  113  114 1   
   117  113  119 1   
   118  113  120 1   
   119  114  115 1   
   120  114  116 2   
   121  115  121 1   
   122  115  122 1   
   123  123  124 1   
   124  123  135 1   
   125  124  125 1   
   126  124  127 1   
   127  124  136 1   
   128  125  126 2   
   129  125  144 1   
   130  127  128 1   
   131  127  137 1   
   132  127  138 1   
   133  128  129 ar  
   134  128  130 ar  
   135  129  131 ar  
   136  129  139 1   
   137  130  132 ar  
   138  130  140 1   
   139  131  133 ar  
   140  131  141 1   
   141  132  133 ar  
   142  132  142 1   
   143  133  134 1   
   144  134  143 1   
   145  144  145 1   
   146  144  153 1   
   147  145  146 1   
   148  145  148 1   
   149  145  154 1   
   150  146  147 2   
   151  146  159 1   
   152  148  149 1   
   153  148  155 1   
   154  148  156 1   
   155  149  150 1   
   156  149  157 1   
   157  149  158 1   
   158  150  151 1   
   159  150  152 1   
   160  159  160 1   
   161  159  168 1   
   162  160  161 1   
   163  160  163 1   
   164  160  169 1   
   165  161  162 2   
   166  161  174 1   
   167  163  164 1   
   168  163  170 1   
   169  163  171 1   
   170  164  165 1   
   171  164  172 1   
   172  164  173 1   
   173  165  166 1   
   174  165  167 1   
   175  174  175 1   
   176  174  179 1   
   177  175  176 1   
   178  175  177 1   
   179  175  178 1   
   180  181  182 1   
   181  181  183 1   
   182  184  185 1   
   183  184  186 1   
@<TRIPOS>SUBSTRUCTURE
     1 MOL         1 TEMP              0 ****  ****    0 ROOT
