@<TRIPOS>MOLECULE
MOL
  175   173     1     0     0
SMALL
resp


@<TRIPOS>ATOM
      1 C1         -0.2820   -2.4830    5.6250 c3        1 MOL     -0.302669
      2 C2          0.1440   -2.3400    4.1900 c         1 MOL      0.802869
      3 O1         -0.2390   -3.1940    3.4140 o         1 MOL     -0.616774
      4 H1          0.5990   -2.4710    6.2680 hc        1 MOL      0.064242
      5 H2         -0.9380   -1.6550    5.8940 hc        1 MOL      0.064242
      6 H3         -0.8120   -3.4260    5.7550 hc        1 MOL      0.064242
      7 N1          1.0910   -1.4720    3.9170 n         1 MOL     -0.611682
      8 C3          1.7680   -1.4430    2.6320 c3        1 MOL      0.041704
      9 C4          2.7710   -2.6270    2.4750 c         1 MOL      0.497909
     10 O2          3.8250   -2.6610    3.1520 o         1 MOL     -0.567794
     11 C5          2.6050   -0.0400    2.6680 c3        1 MOL     -0.023577
     12 C6          3.6320    0.0210    1.4880 c         1 MOL      0.676659
     13 O3          4.6210    0.7170    1.6980 o         1 MOL     -0.686987
     14 O4          3.3000   -0.4480    0.3250 o         1 MOL     -0.686987
     15 H4          1.5290   -1.0430    4.7160 hn        1 MOL      0.319545
     16 H5          1.1530   -1.2980    1.7560 h1        1 MOL      0.167436
     17 H6          3.1650    0.0270    3.5990 hc        1 MOL     -0.012778
     18 H7          1.9220    0.7990    2.5570 hc        1 MOL     -0.012778
     19 N2          2.4160   -3.5910    1.5980 n         1 MOL     -0.268766
     20 C7          2.8710   -4.9840    1.5120 c3        1 MOL      0.040419
     21 C8          3.8940   -5.2640    0.3950 c         1 MOL      0.470151
     22 O5          4.7940   -6.0950    0.5230 o         1 MOL     -0.542603
     23 C9          1.5610   -5.7870    1.2930 c3        1 MOL     -0.147053
     24 H8          1.5180   -3.3980    1.1820 hn        1 MOL      0.280416
     25 H9          3.3620   -5.4650    2.3580 h1        1 MOL      0.053996
     26 H10         1.5170   -6.8530    1.5180 hc        1 MOL      0.041136
     27 H11         0.6960   -5.3690    1.8160 hc        1 MOL      0.041136
     28 H12         1.4180   -5.6960    0.2140 hc        1 MOL      0.041136
     29 N3          3.8460   -4.4550   -0.7410 n         1 MOL     -0.360938
     30 C10         5.0720   -4.2540   -1.6460 c3        1 MOL      0.028513
     31 C11         6.1240   -3.3280   -1.0570 c         1 MOL      0.542654
     32 O6          7.2970   -3.5520   -1.3150 o         1 MOL     -0.600955
     33 C12         4.7140   -3.8860   -3.0380 c3        1 MOL     -0.140037
     34 C13         3.7550   -2.7870   -3.3470 c         1 MOL      0.654308
     35 O7          3.1950   -2.2360   -2.3690 o         1 MOL     -0.705400
     36 O8          3.7100   -2.3100   -4.5580 o         1 MOL     -0.705400
     37 H13         3.0610   -3.8510   -0.9420 hn        1 MOL      0.259725
     38 H14         5.5560   -5.2310   -1.6820 h1        1 MOL      0.058736
     39 H15         4.2350   -4.7550   -3.4980 hc        1 MOL      0.039563
     40 H16         5.6450   -3.7120   -3.5800 hc        1 MOL      0.039563
     41 N4          5.6910   -2.4040   -0.2000 n         1 MOL      0.039827
     42 C14         6.6270   -1.6870    0.6770 c3        1 MOL     -0.360099
     43 C15         7.1230   -0.3320    0.2760 c         1 MOL      0.705878
     44 O9          7.9790    0.2070    0.9020 o         1 MOL     -0.633799
     45 H17         4.6920   -2.3140   -0.0900 hn        1 MOL      0.001437
     46 H18         7.5020   -2.2820    0.9580 h1        1 MOL      0.137850
     47 H19         6.1340   -1.4580    1.6220 h1        1 MOL      0.137850
     48 N5          6.6250    0.2720   -0.8070 n         1 MOL     -0.376682
     49 C16         7.1110    1.5870   -1.4520 c3        1 MOL     -0.061978
     50 C17         6.8680    2.8480   -0.5400 c         1 MOL      0.484667
     51 O10         7.1620    3.9400   -0.9750 o         1 MOL     -0.556507
     52 C18         6.5030    1.7170   -2.9010 c3        1 MOL     -0.113825
     53 C19         5.0080    1.6060   -2.9370 c         1 MOL      0.578104
     54 N6          4.3120    2.6670   -3.4080 n         1 MOL     -0.793589
     55 O11         4.3620    0.6120   -2.5640 o         1 MOL     -0.375499
     56 H20         5.7650   -0.1060   -1.1790 hn        1 MOL      0.102537
     57 H21         8.2020    1.5590   -1.5450 h1        1 MOL      0.118067
     58 H22         6.9480    1.0340   -3.6250 hc        1 MOL      0.052650
     59 H23         6.7790    2.7170   -3.2710 hc        1 MOL      0.052650
     60 H24         4.8170    3.5290   -3.5650 hn        1 MOL      0.361338
     61 H25         3.3200    2.6950   -3.2190 hn        1 MOL      0.361338
     62 N7          6.4040    2.6370    0.7030 n         1 MOL     -0.273585
     63 C20         6.1860    3.6660    1.7200 c3        1 MOL     -0.132922
     64 C21         4.8740    4.4350    1.7100 c         1 MOL      0.569881
     65 O12         4.8440    5.5590    2.1700 o         1 MOL     -0.587966
     66 H26         6.2430    1.6760    1.0020 hn        1 MOL      0.339660
     67 H27         6.9750    4.4140    1.7430 h1        1 MOL      0.089291
     68 H28         6.2720    3.2530    2.7250 h1        1 MOL      0.089291
     69 N8          3.8210    3.7910    1.2090 n         1 MOL     -0.274011
     70 C22         2.4360    4.2510    1.2060 c3        1 MOL     -0.155395
     71 C23         1.4610    3.1290    1.0670 c         1 MOL      0.877465
     72 O13         1.6980    2.0910    0.4300 o         1 MOL     -0.558238
     73 C24         2.1540    5.2500    0.0400 c3        1 MOL      0.288137
     74 C25         2.7260    6.6500    0.3700 c3        1 MOL     -0.494056
     75 O14         2.5540    4.7600   -1.1930 oh        1 MOL     -0.524639
     76 H29         4.0060    2.8290    0.9720 hn        1 MOL      0.150595
     77 H30         2.1890    4.7530    2.1390 h1        1 MOL      0.084999
     78 H31         1.0990    5.4690   -0.0160 h1        1 MOL      0.047844
     79 H32         3.2880    5.3330   -1.4210 ho        1 MOL      0.362703
     80 H33         3.7800    6.7990    0.1120 hc        1 MOL      0.131644
     81 H34         2.0970    7.3870   -0.1330 hc        1 MOL      0.131644
     82 H35         2.6180    6.7800    1.4450 hc        1 MOL      0.131644
     83 N9          0.3010    3.3630    1.6540 n         1 MOL     -0.779238
     84 C26        -0.8060    2.4330    1.6430 c3        1 MOL     -0.005596
     85 C27        -1.6910    2.7430    0.4140 c         1 MOL      0.580166
     86 O15        -2.2100    3.8460    0.1690 o         1 MOL     -0.589363
     87 C28        -1.5920    2.6930    2.9420 c3        1 MOL      0.243136
     88 C29        -0.6920    2.5520    4.2130 c3        1 MOL      0.157859
     89 C30        -2.8630    1.8060    2.8720 c3        1 MOL     -0.220496
     90 C31        -1.4710    2.9350    5.5350 c3        1 MOL     -0.224676
     91 H36         0.1410    4.2130    2.1720 hn        1 MOL      0.322400
     92 H37        -0.5120    1.3910    1.5690 h1        1 MOL      0.127614
     93 H38        -1.9530    3.7090    2.8260 hc        1 MOL     -0.045333
     94 H39         0.1480    3.2460    4.1780 hc        1 MOL     -0.039541
     95 H40        -0.3900    1.5160    4.3160 hc        1 MOL     -0.039541
     96 H41        -3.4990    2.0270    2.0240 hc        1 MOL      0.014695
     97 H42        -2.6150    0.7580    2.6940 hc        1 MOL      0.014695
     98 H43        -3.2480    1.8390    3.8930 hc        1 MOL      0.014695
     99 H44        -2.2430    3.6820    5.3250 hc        1 MOL      0.044982
    100 H45        -2.0710    2.0860    5.8570 hc        1 MOL      0.044982
    101 H46        -0.7960    3.2250    6.3380 hc        1 MOL      0.044982
    102 N10        -1.9290    1.6880   -0.4120 n         1 MOL     -0.266116
    103 C32        -2.9790    1.6670   -1.4020 c3        1 MOL      0.097113
    104 C33        -4.3600    1.2160   -0.7560 c         1 MOL      0.399541
    105 O16        -4.3850    0.5090    0.2860 o         1 MOL     -0.146500
    106 C34        -2.4570    0.7150   -2.5040 c3        1 MOL     -0.277263
    107 C35        -1.0830    0.9700   -3.0850 c         1 MOL      0.752856
    108 O17        -0.2560    0.0090   -3.0590 o         1 MOL     -0.673130
    109 O18        -0.8690    2.0740   -3.6070 o         1 MOL     -0.673130
    110 H47        -1.3370    0.8910   -0.2640 hn        1 MOL      0.123278
    111 H48        -3.1390    2.6320   -1.8800 h1        1 MOL      0.053894
    112 H49        -3.1720    0.6080   -3.3150 hc        1 MOL      0.062073
    113 H50        -2.5310   -0.2940   -2.1170 hc        1 MOL      0.062073
    114 N11        -5.4880    1.4810   -1.4840 n         1 MOL     -0.764633
    115 C36        -6.8660    1.1830   -0.9370 c3        1 MOL      0.506010
    116 C37        -7.1130   -0.3200   -0.7860 c         1 MOL      0.164676
    117 O19        -7.6700   -0.7400    0.2480 o         1 MOL     -0.467451
    118 C38        -7.8710    1.9990   -1.7900 c3        1 MOL     -0.303604
    119 C39        -9.2710    1.8710   -1.3300 ca        1 MOL      0.278955
    120 C40        -9.5100    2.1610   -0.0300 ca        1 MOL     -0.272510
    121 C41       -10.3690    1.6220   -2.1830 ca        1 MOL     -0.272510
    122 C42       -10.7900    2.0160    0.4890 ca        1 MOL     -0.061540
    123 C43       -11.6890    1.4290   -1.6780 ca        1 MOL     -0.061540
    124 C44       -11.8970    1.5900   -0.2860 ca        1 MOL     -0.152268
    125 H51        -5.3440    2.0040   -2.3240 hn        1 MOL      0.359753
    126 H52        -6.7810    1.5380    0.0930 h1        1 MOL      0.042037
    127 H53        -7.8270    1.6340   -2.8230 hc        1 MOL      0.084371
    128 H54        -7.6370    3.0560   -1.8500 hc        1 MOL      0.084371
    129 H55        -8.7540    2.5190    0.6470 ha        1 MOL      0.129080
    130 H56       -10.1670    1.3810   -3.2190 ha        1 MOL      0.129080
    131 H57       -10.9840    2.2920    1.5130 ha        1 MOL      0.102357
    132 H58       -12.5320    1.1850   -2.3080 ha        1 MOL      0.102357
    133 H59       -12.8790    1.4970    0.1630 ha        1 MOL      0.110118
    134 N12        -6.5800   -1.2110   -1.6460 n         1 MOL      0.047833
    135 C45        -6.5280   -2.7020   -1.4090 c3        1 MOL     -0.015562
    136 C46        -5.6710   -3.0930   -0.2070 c         1 MOL      0.342749
    137 O20        -6.1320   -4.0750    0.4090 o         1 MOL     -0.493327
    138 C47        -5.9810   -3.2610   -2.7910 c3        1 MOL      0.045253
    139 C48        -6.4660   -2.2440   -3.8660 c3        1 MOL     -0.091606
    140 C49        -6.2700   -0.9110   -3.0320 c3        1 MOL     -0.100872
    141 H60        -7.5760   -2.9600   -1.3020 h1        1 MOL      0.065896
    142 H61        -4.8930   -3.2500   -2.6950 hc        1 MOL      0.013226
    143 H62        -6.2720   -4.2940   -2.9500 hc        1 MOL      0.013226
    144 H63        -5.8420   -2.3150   -4.7530 hc        1 MOL      0.044909
    145 H64        -7.4800   -2.5570   -4.1000 hc        1 MOL      0.044909
    146 H65        -5.2290   -0.5880   -2.9230 h1        1 MOL      0.045236
    147 H66        -6.8700   -0.1740   -3.5640 h1        1 MOL      0.045236
    148 N13        -4.5780   -2.3650    0.0990 n         1 MOL     -0.141386
    149 C50        -3.8380   -2.5920    1.3290 c3        1 MOL     -0.275820
    150 C51        -4.6810   -2.1460    2.5940 c         1 MOL      0.527098
    151 O21        -4.8010   -2.7780    3.6040 o         1 MOL     -0.555692
    152 C52        -2.4140   -1.9480    1.1300 c3        1 MOL      0.261762
    153 C53        -1.4550   -2.5750    0.0960 c3        1 MOL     -0.024407
    154 C54        -0.2040   -1.6990   -0.1200 c         1 MOL      0.346170
    155 O22        -0.2550   -0.4340   -0.0710 o         1 MOL     -0.634370
    156 O23         0.8660   -2.3060   -0.4190 o         1 MOL     -0.634370
    157 H67        -4.3200   -1.5130   -0.3780 hn        1 MOL      0.171250
    158 H68        -3.7520   -3.6830    1.3890 h1        1 MOL      0.125557
    159 H69        -1.9490   -1.8780    2.1180 hc        1 MOL     -0.053230
    160 H70        -2.6060   -0.9080    0.8640 hc        1 MOL     -0.053230
    161 H71        -2.0020   -2.7950   -0.8210 hc        1 MOL      0.016761
    162 H72        -1.1500   -3.5560    0.4680 hc        1 MOL      0.016761
    163 N14        -5.3990   -1.0240    2.5010 n         1 MOL      0.003801
    164 C55        -6.3050   -0.4310    3.5490 c3        1 MOL     -0.315079
    165 H73        -5.7120   -0.1310    4.4130 h1        1 MOL      0.109387
    166 H74        -6.8130    0.4410    3.1390 h1        1 MOL      0.109387
    167 H75        -7.0420   -1.1730    3.8540 h1        1 MOL      0.109387
    168 H76        -5.3210   -0.4500    1.6770 hn        1 MOL     -0.029369
    169 Ca1         1.8270   -0.2080   -1.6930 Ca        1 MOL      1.693116
    170 O24         2.0930   -0.2400   -4.5280 oh        1 MOL     -0.829152
    171 H77         1.3420   -0.5730   -5.0170 ho        1 MOL      0.376544
    172 H78         2.7540   -0.9250   -4.6280 ho        1 MOL      0.376544
    173 O25         1.6120    2.4120   -2.5360 oh        1 MOL     -0.829152
    174 H79         1.5330    3.3110   -2.2170 ho        1 MOL      0.376544
    175 H80         0.8090    2.2670   -3.0340 ho        1 MOL      0.376544
@<TRIPOS>BOND
     1    1    2 1   
     2    1    4 1   
     3    1    5 1   
     4    1    6 1   
     5    2    3 2   
     6    2    7 1   
     7    7    8 1   
     8    7   15 1   
     9    8    9 1   
    10    8   11 1   
    11    8   16 1   
    12    9   10 2   
    13    9   19 1   
    14   11   12 1   
    15   11   17 1   
    16   11   18 1   
    17   12   13 1   
    18   12   14 1   
    19   19   20 1   
    20   19   24 1   
    21   20   21 1   
    22   20   23 1   
    23   20   25 1   
    24   21   22 2   
    25   21   29 1   
    26   23   26 1   
    27   23   27 1   
    28   23   28 1   
    29   29   30 1   
    30   29   37 1   
    31   30   31 1   
    32   30   33 1   
    33   30   38 1   
    34   31   32 2   
    35   31   41 1   
    36   33   34 1   
    37   33   39 1   
    38   33   40 1   
    39   34   35 1   
    40   34   36 1   
    41   41   42 1   
    42   41   45 1   
    43   42   43 1   
    44   42   46 1   
    45   42   47 1   
    46   43   44 2   
    47   43   48 1   
    48   48   49 1   
    49   48   56 1   
    50   49   50 1   
    51   49   52 1   
    52   49   57 1   
    53   50   51 2   
    54   50   62 1   
    55   52   53 1   
    56   52   58 1   
    57   52   59 1   
    58   53   54 1   
    59   53   55 2   
    60   54   60 1   
    61   54   61 1   
    62   62   63 1   
    63   62   66 1   
    64   63   64 1   
    65   63   67 1   
    66   63   68 1   
    67   64   65 2   
    68   64   69 1   
    69   69   70 1   
    70   69   76 1   
    71   70   71 1   
    72   70   73 1   
    73   70   77 1   
    74   71   72 2   
    75   71   83 1   
    76   73   74 1   
    77   73   75 1   
    78   73   78 1   
    79   74   80 1   
    80   74   81 1   
    81   74   82 1   
    82   75   79 1   
    83   83   84 1   
    84   83   91 1   
    85   84   85 1   
    86   84   87 1   
    87   84   92 1   
    88   85   86 2   
    89   85  102 1   
    90   87   88 1   
    91   87   89 1   
    92   87   93 1   
    93   88   90 1   
    94   88   94 1   
    95   88   95 1   
    96   89   96 1   
    97   89   97 1   
    98   89   98 1   
    99   90   99 1   
   100   90  100 1   
   101   90  101 1   
   102  102  103 1   
   103  102  110 1   
   104  103  104 1   
   105  103  106 1   
   106  103  111 1   
   107  104  105 2   
   108  104  114 1   
   109  106  107 1   
   110  106  112 1   
   111  106  113 1   
   112  107  108 1   
   113  107  109 1   
   114  114  115 1   
   115  114  125 1   
   116  115  116 1   
   117  115  118 1   
   118  115  126 1   
   119  116  117 2   
   120  116  134 1   
   121  118  119 1   
   122  118  127 1   
   123  118  128 1   
   124  119  120 ar  
   125  119  121 ar  
   126  120  122 ar  
   127  120  129 1   
   128  121  123 ar  
   129  121  130 1   
   130  122  124 ar  
   131  122  131 1   
   132  123  124 ar  
   133  123  132 1   
   134  124  133 1   
   135  134  135 1   
   136  134  140 1   
   137  135  136 1   
   138  135  138 1   
   139  135  141 1   
   140  136  137 2   
   141  136  148 1   
   142  138  139 1   
   143  138  142 1   
   144  138  143 1   
   145  139  140 1   
   146  139  144 1   
   147  139  145 1   
   148  140  146 1   
   149  140  147 1   
   150  148  149 1   
   151  148  157 1   
   152  149  150 1   
   153  149  152 1   
   154  149  158 1   
   155  150  151 2   
   156  150  163 1   
   157  152  153 1   
   158  152  159 1   
   159  152  160 1   
   160  153  154 1   
   161  153  161 1   
   162  153  162 1   
   163  154  155 1   
   164  154  156 1   
   165  163  164 1   
   166  163  168 1   
   167  164  165 1   
   168  164  166 1   
   169  164  167 1   
   170  170  171 1   
   171  170  172 1   
   172  173  174 1   
   173  173  175 1   
@<TRIPOS>SUBSTRUCTURE
     1 MOL         1 TEMP              0 ****  ****    0 ROOT
