@<TRIPOS>MOLECULE
MOL
  189   185     1     0     0
SMALL
resp


@<TRIPOS>ATOM
      1 C1          0.1080   -4.9150    5.1840 c3        1 MOL     -0.346489
      2 C2          0.8240   -4.0940    4.0920 c         1 MOL      0.800746
      3 O1          0.8080   -2.8460    4.1720 o         1 MOL     -0.641334
      4 H1         -0.3310   -4.2390    5.9170 hc        1 MOL      0.084019
      5 H2         -0.6780   -5.5170    4.7280 hc        1 MOL      0.084019
      6 H3          0.8270   -5.5680    5.6780 hc        1 MOL      0.084019
      7 N1          1.5730   -4.7040    3.2260 n         1 MOL     -0.797688
      8 C3          2.4000   -4.0050    2.2060 c3        1 MOL      0.567150
      9 C4          2.6710   -4.9660    1.0490 c         1 MOL      0.323441
     10 O2          3.3990   -5.9520    1.1160 o         1 MOL     -0.551682
     11 C5          3.7310   -3.4920    2.7600 c3        1 MOL     -0.244294
     12 C6          4.4680   -2.6690    1.6780 c         1 MOL      0.799275
     13 O3          5.6940   -2.4880    1.7990 o         1 MOL     -0.718684
     14 O4          3.9180   -2.2760    0.6050 o         1 MOL     -0.718684
     15 H4          1.5470   -5.7040    3.3050 hn        1 MOL      0.342166
     16 H5          1.8740   -3.1510    1.7990 h1        1 MOL     -0.038900
     17 H6          4.4000   -4.3270    2.9780 hc        1 MOL      0.044050
     18 H7          3.6510   -2.9220    3.6880 hc        1 MOL      0.044050
     19 N2          2.0670   -4.6330   -0.1190 n         1 MOL     -0.185060
     20 C7          2.1190   -5.4480   -1.3950 c3        1 MOL     -0.020661
     21 C8          3.3450   -5.0500   -2.2160 c         1 MOL      0.552517
     22 O5          3.7110   -5.8100   -3.1700 o         1 MOL     -0.601581
     23 C9          0.8040   -5.2230   -2.1400 c3        1 MOL      0.397312
     24 C10        -0.4390   -5.0570   -1.2580 c3        1 MOL      0.019131
     25 C11         0.6120   -6.3500   -3.1450 c3        1 MOL     -0.585418
     26 C12        -0.7400   -6.3580   -0.3920 c3        1 MOL     -0.309263
     27 H8          1.6140   -3.7330   -0.1630 hn        1 MOL      0.102085
     28 H9          2.2900   -6.5090   -1.2360 h1        1 MOL      0.066711
     29 H10         0.9530   -4.3290   -2.7460 hc        1 MOL     -0.022617
     30 H11        -1.1890   -4.7850   -1.9890 hc        1 MOL     -0.001135
     31 H12        -0.2260   -4.2110   -0.6010 hc        1 MOL     -0.001135
     32 H13        -0.2610   -6.2390   -3.7860 hc        1 MOL      0.125168
     33 H14         1.3730   -6.2560   -3.9350 hc        1 MOL      0.125168
     34 H15         0.7500   -7.2940   -2.6230 hc        1 MOL      0.125168
     35 H16        -1.1460   -7.2490   -0.8810 hc        1 MOL      0.069252
     36 H17         0.1160   -6.8340    0.0780 hc        1 MOL      0.069252
     37 H18        -1.3900   -5.9120    0.3580 hc        1 MOL      0.069252
     38 N3          4.1190   -3.9490   -1.9560 n         1 MOL     -0.416228
     39 C13         5.1120   -3.3090   -2.8970 c3        1 MOL      0.056061
     40 C14         6.4460   -2.7570   -2.2930 c         1 MOL      0.263153
     41 O6          7.4700   -2.6380   -3.0130 o         1 MOL     -0.539746
     42 C15         4.3450   -2.3440   -3.8650 c3        1 MOL     -0.388221
     43 C16         3.4250   -1.3520   -3.1900 c         1 MOL      0.808859
     44 O7          3.7510   -0.9880   -2.0320 o         1 MOL     -0.688103
     45 O8          2.4810   -0.8610   -3.7910 o         1 MOL     -0.688103
     46 H19         3.9940   -3.4550   -1.0760 hn        1 MOL      0.247291
     47 H20         5.3530   -4.1330   -3.5720 h1        1 MOL      0.111768
     48 H21         3.7510   -3.0590   -4.4420 hc        1 MOL      0.107040
     49 H22         5.0080   -1.8130   -4.5490 hc        1 MOL      0.107040
     50 N4          6.3890   -2.2820   -1.0800 n         1 MOL      0.047319
     51 C17         7.5050   -1.5520   -0.5000 c3        1 MOL     -0.361954
     52 C18         7.6520   -0.1640   -1.1800 c         1 MOL      0.501658
     53 O9          8.6710    0.4650   -0.9750 o         1 MOL     -0.546236
     54 H23         5.4950   -2.2890   -0.6220 hn        1 MOL      0.108112
     55 H24         8.4270   -2.1050   -0.6380 h1        1 MOL      0.154730
     56 H25         7.3140   -1.5240    0.5850 h1        1 MOL      0.154730
     57 N5          6.6030    0.4070   -1.8480 n         1 MOL     -0.316778
     58 C19         6.6340    1.8620   -2.2630 c3        1 MOL      0.077457
     59 C20         6.9350    2.8310   -1.0480 c         1 MOL      0.410371
     60 O10         7.7870    3.7650   -1.1660 o         1 MOL     -0.555027
     61 C21         5.3510    2.3870   -2.9630 c3        1 MOL     -0.436469
     62 C22         3.9500    2.4490   -2.2000 c         1 MOL      0.836691
     63 O11         3.8930    1.9880   -1.0580 o         1 MOL     -0.752984
     64 O12         2.9320    2.7640   -2.8340 o         1 MOL     -0.752984
     65 H26         5.8000   -0.1500   -2.1030 hn        1 MOL      0.286066
     66 H27         7.4420    2.0490   -2.9590 h1        1 MOL      0.073067
     67 H28         4.9710    1.8430   -3.8250 hc        1 MOL      0.107784
     68 H29         5.5900    3.4130   -3.2250 hc        1 MOL      0.107784
     69 N6          6.4270    2.5160    0.1720 n         1 MOL     -0.127754
     70 C23         6.7260    3.3320    1.3760 c3        1 MOL     -0.119245
     71 C24         5.6710    4.2560    1.8240 c         1 MOL      0.621587
     72 O13         5.8960    5.0090    2.7340 o         1 MOL     -0.594515
     73 H30         5.7680    1.7710    0.3580 hn        1 MOL      0.226825
     74 H31         7.6870    3.8400    1.3380 h1        1 MOL      0.063009
     75 H32         6.8360    2.5600    2.1460 h1        1 MOL      0.063009
     76 N7          4.4520    4.1550    1.2000 n         1 MOL     -0.417995
     77 C25         3.1590    4.7100    1.6320 c3        1 MOL      0.121846
     78 C26         2.0290    3.6950    1.6050 c         1 MOL      0.533867
     79 O14         2.2270    2.5780    1.0840 o         1 MOL     -0.616126
     80 C27         2.8030    5.9510    0.8130 c3        1 MOL     -0.341956
     81 C28         2.5330    5.7830   -0.6880 c3        1 MOL      0.109143
     82 C29         2.3020    7.0900   -1.4060 c         1 MOL      0.621067
     83 N8          2.5870    7.2320   -2.6560 n         1 MOL     -0.744905
     84 O15         2.0400    8.1520   -0.8440 o         1 MOL     -0.613137
     85 H33         4.4680    3.4250    0.4980 hn        1 MOL      0.241699
     86 H34         3.2160    4.9670    2.6950 h1        1 MOL      0.034795
     87 H35         3.5820    6.7050    0.8960 hc        1 MOL      0.088375
     88 H36         1.8970    6.3150    1.3020 hc        1 MOL      0.088375
     89 H37         1.6010    5.2520   -0.8960 hc        1 MOL      0.007821
     90 H38         3.3350    5.3610   -1.3020 hc        1 MOL      0.007821
     91 H39         2.7290    6.4320   -3.2520 hn        1 MOL      0.345410
     92 H40         2.4890    8.1850   -2.9590 hn        1 MOL      0.345410
     93 N9          0.9110    4.0440    2.1560 n         1 MOL     -0.280261
     94 C30        -0.1370    3.0610    2.4550 c3        1 MOL     -0.257955
     95 C31        -1.2490    3.3040    1.4990 c         1 MOL      0.588570
     96 O16        -1.8090    4.3890    1.4460 o         1 MOL     -0.601046
     97 C32        -0.6450    3.1410    3.8980 c3        1 MOL      0.402237
     98 C33        -1.3870    1.8330    4.2480 c3        1 MOL     -0.472589
     99 C34         0.4880    3.3080    4.8510 c3        1 MOL     -0.472589
    100 H41         0.9030    5.0150    2.4160 hn        1 MOL      0.280466
    101 H42         0.3000    2.0690    2.3510 h1        1 MOL      0.150204
    102 H43        -1.2920    4.0150    3.9840 hc        1 MOL     -0.031024
    103 H44        -2.2590    1.8100    3.5890 hc        1 MOL      0.107086
    104 H45        -0.7820    0.9340    4.2040 hc        1 MOL      0.107086
    105 H46        -1.8330    1.9330    5.2390 hc        1 MOL      0.107086
    106 H47         1.2190    2.4980    4.7840 hc        1 MOL      0.107086
    107 H48         0.9920    4.2720    4.7730 hc        1 MOL      0.107086
    108 H49        -0.0730    3.2130    5.7740 hc        1 MOL      0.107086
    109 N10        -1.6710    2.3360    0.7200 n         1 MOL     -0.219556
    110 C35        -2.8800    2.3680   -0.1300 c3        1 MOL      0.067082
    111 C36        -4.1460    2.0940    0.7340 c         1 MOL      0.211445
    112 O17        -4.0310    1.5280    1.7920 o         1 MOL     -0.246215
    113 C37        -2.6930    1.2280   -1.1500 c3        1 MOL     -0.220578
    114 C38        -3.8180    1.1700   -2.2460 c         1 MOL      0.620459
    115 N11        -4.0460    2.1150   -3.0610 n         1 MOL     -0.692050
    116 O18        -4.6280    0.2630   -2.2860 o         1 MOL     -0.515433
    117 H50        -1.2390    1.4250    0.7890 hn        1 MOL      0.110749
    118 H51        -3.0170    3.3320   -0.6270 h1        1 MOL      0.065951
    119 H52        -2.6140    0.2920   -0.6190 hc        1 MOL      0.091931
    120 H53        -1.7200    1.3500   -1.6270 hc        1 MOL      0.091931
    121 H54        -3.4530    2.9190   -3.2130 hn        1 MOL      0.337155
    122 H55        -4.8070    1.9730   -3.7030 hn        1 MOL      0.337155
    123 N12        -5.4030    2.4310    0.2030 n         1 MOL     -0.189485
    124 C39        -6.6260    2.0700    0.8850 c3        1 MOL      0.102817
    125 C40        -6.9110    0.5510    0.9680 c         1 MOL      0.267336
    126 O19        -7.4040    0.0330    1.9400 o         1 MOL     -0.526110
    127 C41        -7.8360    2.7550    0.2340 c3        1 MOL     -0.456951
    128 C42        -8.0960    2.5830   -1.2760 ca        1 MOL      0.254314
    129 C43        -7.6570    3.5980   -2.1110 ca        1 MOL     -0.313782
    130 C44        -8.7110    1.4580   -1.7540 ca        1 MOL     -0.313782
    131 C45        -7.7590    3.3930   -3.4970 ca        1 MOL     -0.138754
    132 C46        -8.9020    1.2810   -3.1690 ca        1 MOL     -0.138754
    133 C47        -8.3860    2.2360   -4.0380 ca        1 MOL      0.289789
    134 O20        -8.2610    1.9990   -5.3760 oh        1 MOL     -0.570706
    135 H56        -5.4440    2.9270   -0.6740 hn        1 MOL      0.148595
    136 H57        -6.6510    2.4370    1.9120 h1        1 MOL      0.085791
    137 H58        -7.7580    3.8040    0.5280 hc        1 MOL      0.138202
    138 H59        -8.7110    2.3340    0.7270 hc        1 MOL      0.138202
    139 H60        -7.0950    4.4130   -1.6840 ha        1 MOL      0.167321
    140 H61        -9.0730    0.6660   -1.1150 ha        1 MOL      0.167321
    141 H62        -7.2820    4.1060   -4.1550 ha        1 MOL      0.096085
    142 H63        -9.4460    0.4370   -3.5540 ha        1 MOL      0.096085
    143 H64        -8.4110    1.0670   -5.5600 ho        1 MOL      0.425671
    144 N13        -6.6160   -0.2260   -0.1150 n         1 MOL      0.376587
    145 C48        -6.6850   -1.6700   -0.0100 c3        1 MOL     -0.442393
    146 C49        -5.6190   -2.2680    0.9520 c         1 MOL      0.515826
    147 O21        -5.7490   -3.4430    1.3580 o         1 MOL     -0.525253
    148 C50        -6.6300   -2.4470   -1.2990 c3        1 MOL      0.052697
    149 C51        -7.6530   -2.2210   -2.3780 c3        1 MOL     -0.080418
    150 C52        -9.1110   -2.5210   -2.1250 c         1 MOL      0.740667
    151 O22        -9.3930   -3.3100   -1.2140 o         1 MOL     -0.728720
    152 O23       -10.0380   -2.0670   -2.7980 o         1 MOL     -0.728720
    153 H65        -5.9590    0.2190   -0.7380 hn        1 MOL      0.034633
    154 H66        -7.6060   -1.9030    0.5250 h1        1 MOL      0.171676
    155 H67        -6.7900   -3.4950   -1.0840 hc        1 MOL      0.026756
    156 H68        -5.6260   -2.3040   -1.6780 hc        1 MOL      0.026756
    157 H69        -7.3590   -2.8690   -3.2100 hc        1 MOL     -0.036319
    158 H70        -7.6160   -1.2130   -2.7990 hc        1 MOL     -0.036319
    159 N14        -4.5410   -1.5270    1.3080 n         1 MOL     -0.178236
    160 C53        -3.6070   -1.8760    2.4100 c3        1 MOL     -0.020542
    161 C54        -4.1670   -1.4120    3.7550 c         1 MOL      0.430591
    162 O24        -4.1440   -2.1400    4.7860 o         1 MOL     -0.570456
    163 C55        -2.1810   -1.3230    2.1760 c3        1 MOL     -0.057919
    164 C56        -1.5550   -1.9650    0.9120 c3        1 MOL     -0.042124
    165 C57        -0.2790   -1.2850    0.5220 c         1 MOL      0.828165
    166 O25         0.5690   -2.0210   -0.0700 o         1 MOL     -0.742249
    167 O26         0.0280   -0.1310    0.9540 o         1 MOL     -0.742249
    168 H71        -4.4990   -0.5790    0.9600 hn        1 MOL      0.020521
    169 H72        -3.5890   -2.9640    2.4870 h1        1 MOL      0.070457
    170 H73        -1.4540   -1.4970    2.9700 hc        1 MOL      0.048842
    171 H74        -2.3910   -0.2520    2.0360 hc        1 MOL      0.048842
    172 H75        -2.2160   -1.9840    0.0350 hc        1 MOL      0.013521
    173 H76        -1.3330   -3.0110    1.0960 hc        1 MOL      0.013521
    174 N15        -4.6560   -0.1730    3.7960 n         1 MOL     -0.013249
    175 C58        -5.1510    0.4780    5.0230 c3        1 MOL     -0.234195
    176 H77        -4.3060    0.8480    5.6030 h1        1 MOL      0.080589
    177 H78        -5.8010    1.3120    4.7550 h1        1 MOL      0.080589
    178 H79        -5.7110   -0.2430    5.6170 h1        1 MOL      0.080589
    179 H80        -4.7030    0.3650    2.9470 hn        1 MOL      0.054929
    180 Ca1         2.5880    0.0240    0.1540 Ca        1 MOL      1.733077
    181 O27         1.9850   -0.7090    2.7250 oh        1 MOL     -0.940485
    182 H81         2.0480   -1.0510    3.6230 ho        1 MOL      0.442554
    183 H82         1.0570   -0.5290    2.6110 ho        1 MOL      0.442554
    184 O28         4.9370    0.0970    1.4700 oh        1 MOL     -0.940485
    185 H83         4.9410    0.3020    2.4040 ho        1 MOL      0.442554
    186 H84         5.1790   -0.8290    1.4220 ho        1 MOL      0.442554
    187 O29         1.3600    0.6790   -2.0930 oh        1 MOL     -0.940485
    188 H85         1.8240    0.1660   -2.7420 ho        1 MOL      0.442554
    189 H86         1.6190    1.5840   -2.2720 ho        1 MOL      0.442554
@<TRIPOS>BOND
     1    1    2 1   
     2    1    4 1   
     3    1    5 1   
     4    1    6 1   
     5    2    3 2   
     6    2    7 1   
     7    7    8 1   
     8    7   15 1   
     9    8    9 1   
    10    8   11 1   
    11    8   16 1   
    12    9   10 2   
    13    9   19 1   
    14   11   12 1   
    15   11   17 1   
    16   11   18 1   
    17   12   13 1   
    18   12   14 1   
    19   19   20 1   
    20   19   27 1   
    21   20   21 1   
    22   20   23 1   
    23   20   28 1   
    24   21   22 2   
    25   21   38 1   
    26   23   24 1   
    27   23   25 1   
    28   23   29 1   
    29   24   26 1   
    30   24   30 1   
    31   24   31 1   
    32   25   32 1   
    33   25   33 1   
    34   25   34 1   
    35   26   35 1   
    36   26   36 1   
    37   26   37 1   
    38   38   39 1   
    39   38   46 1   
    40   39   40 1   
    41   39   42 1   
    42   39   47 1   
    43   40   41 2   
    44   40   50 1   
    45   42   43 1   
    46   42   48 1   
    47   42   49 1   
    48   43   44 1   
    49   43   45 1   
    50   50   51 1   
    51   50   54 1   
    52   51   52 1   
    53   51   55 1   
    54   51   56 1   
    55   52   53 2   
    56   52   57 1   
    57   57   58 1   
    58   57   65 1   
    59   58   59 1   
    60   58   61 1   
    61   58   66 1   
    62   59   60 2   
    63   59   69 1   
    64   61   62 1   
    65   61   67 1   
    66   61   68 1   
    67   62   63 1   
    68   62   64 1   
    69   69   70 1   
    70   69   73 1   
    71   70   71 1   
    72   70   74 1   
    73   70   75 1   
    74   71   72 2   
    75   71   76 1   
    76   76   77 1   
    77   76   85 1   
    78   77   78 1   
    79   77   80 1   
    80   77   86 1   
    81   78   79 2   
    82   78   93 1   
    83   80   81 1   
    84   80   87 1   
    85   80   88 1   
    86   81   82 1   
    87   81   89 1   
    88   81   90 1   
    89   82   83 1   
    90   82   84 2   
    91   83   91 1   
    92   83   92 1   
    93   93   94 1   
    94   93  100 1   
    95   94   95 1   
    96   94   97 1   
    97   94  101 1   
    98   95   96 2   
    99   95  109 1   
   100   97   98 1   
   101   97   99 1   
   102   97  102 1   
   103   98  103 1   
   104   98  104 1   
   105   98  105 1   
   106   99  106 1   
   107   99  107 1   
   108   99  108 1   
   109  109  110 1   
   110  109  117 1   
   111  110  111 1   
   112  110  113 1   
   113  110  118 1   
   114  111  112 2   
   115  111  123 1   
   116  113  114 1   
   117  113  119 1   
   118  113  120 1   
   119  114  115 1   
   120  114  116 2   
   121  115  121 1   
   122  115  122 1   
   123  123  124 1   
   124  123  135 1   
   125  124  125 1   
   126  124  127 1   
   127  124  136 1   
   128  125  126 2   
   129  125  144 1   
   130  127  128 1   
   131  127  137 1   
   132  127  138 1   
   133  128  129 ar  
   134  128  130 ar  
   135  129  131 ar  
   136  129  139 1   
   137  130  132 ar  
   138  130  140 1   
   139  131  133 ar  
   140  131  141 1   
   141  132  133 ar  
   142  132  142 1   
   143  133  134 1   
   144  134  143 1   
   145  144  145 1   
   146  144  153 1   
   147  145  146 1   
   148  145  148 1   
   149  145  154 1   
   150  146  147 2   
   151  146  159 1   
   152  148  149 1   
   153  148  155 1   
   154  148  156 1   
   155  149  150 1   
   156  149  157 1   
   157  149  158 1   
   158  150  151 1   
   159  150  152 1   
   160  159  160 1   
   161  159  168 1   
   162  160  161 1   
   163  160  163 1   
   164  160  169 1   
   165  161  162 2   
   166  161  174 1   
   167  163  164 1   
   168  163  170 1   
   169  163  171 1   
   170  164  165 1   
   171  164  172 1   
   172  164  173 1   
   173  165  166 1   
   174  165  167 1   
   175  174  175 1   
   176  174  179 1   
   177  175  176 1   
   178  175  177 1   
   179  175  178 1   
   180  181  182 1   
   181  181  183 1   
   182  184  185 1   
   183  184  186 1   
   184  187  188 1   
   185  187  189 1   
@<TRIPOS>SUBSTRUCTURE
     1 MOL         1 TEMP              0 ****  ****    0 ROOT
