@<TRIPOS>MOLECULE
MOL
  179   176     1     0     0
SMALL
resp


@<TRIPOS>ATOM
      1 C1          2.4300    3.4110    4.1410 c3        1 MOL     -0.410212
      2 C2          1.4880    3.1320    2.9180 c         1 MOL      0.693879
      3 O1          1.9960    3.0710    1.8020 o         1 MOL     -0.552431
      4 H1          2.8090    4.4320    4.0800 hc        1 MOL      0.105289
      5 H2          1.8700    3.2870    5.0670 hc        1 MOL      0.105289
      6 H3          3.2650    2.7120    4.1230 hc        1 MOL      0.105289
      7 N1          0.1720    3.1100    3.1460 n         1 MOL     -0.715976
      8 C3         -0.8280    2.7840    2.1170 c3        1 MOL      0.292088
      9 C4         -1.3320    3.9830    1.4700 c         1 MOL      0.547212
     10 O2         -2.4870    4.2820    1.5330 o         1 MOL     -0.483761
     11 C5         -1.8930    1.8150    2.6570 c3        1 MOL     -0.105496
     12 C6         -2.7980    1.3650    1.4930 c         1 MOL      0.657648
     13 O3         -3.9530    1.0990    1.8010 o         1 MOL     -0.698705
     14 O4         -2.4660    1.1170    0.3010 o         1 MOL     -0.698705
     15 H4         -0.2500    3.2010    4.0510 hn        1 MOL      0.351557
     16 H5         -0.3220    2.1800    1.3630 h1        1 MOL     -0.004689
     17 H6         -2.4200    2.3960    3.4060 hc        1 MOL      0.020302
     18 H7         -1.4490    0.9280    3.1210 hc        1 MOL      0.020302
     19 N2         -0.4690    4.7320    0.8040 n         1 MOL     -0.436917
     20 C7         -0.7630    6.0520    0.2940 c3        1 MOL     -0.064462
     21 C8         -1.8210    6.1420   -0.7470 c         1 MOL      0.447838
     22 O5         -2.6370    7.0910   -0.7100 o         1 MOL     -0.532884
     23 C9          0.4820    6.7280   -0.2820 c3        1 MOL     -0.020930
     24 C10         1.4310    7.0910    0.8730 c3        1 MOL      0.123508
     25 C11         2.5200    8.0430    0.2910 c3        1 MOL     -0.063786
     26 C12         3.6650    8.2340    1.3960 c3        1 MOL     -0.143275
     27 N3          4.6990    7.2250    1.5090 n4        1 MOL     -0.166424
     28 H8          0.5050    4.4710    0.7010 hn        1 MOL      0.315008
     29 H9         -1.0430    6.6740    1.1430 h1        1 MOL      0.102586
     30 H10         0.1700    7.5990   -0.8620 hc        1 MOL      0.032438
     31 H11         0.9520    6.0700   -1.0080 hc        1 MOL      0.032438
     32 H12         1.8880    6.1390    1.1560 hc        1 MOL     -0.022192
     33 H13         0.8970    7.5150    1.7140 hc        1 MOL     -0.022192
     34 H14         2.0360    9.0090    0.1380 hc        1 MOL      0.068847
     35 H15         2.8800    7.7820   -0.6990 hc        1 MOL      0.068847
     36 H16         3.1780    8.3770    2.3630 hx        1 MOL      0.114520
     37 H17         4.2410    9.1370    1.2070 hx        1 MOL      0.114520
     38 H18         5.2430    7.3250    2.3470 hn        1 MOL      0.290002
     39 H19         4.3220    6.3030    1.6440 hn        1 MOL      0.290002
     40 H20         5.3980    7.1040    0.7850 hn        1 MOL      0.290002
     41 N4         -1.8500    5.1040   -1.5780 n         1 MOL     -0.351427
     42 C13        -2.9310    4.7700   -2.4970 c3        1 MOL      0.049906
     43 C14        -4.2590    4.4650   -1.8040 c         1 MOL      0.447286
     44 O6         -5.3170    4.6510   -2.3870 o         1 MOL     -0.571217
     45 C15        -2.6410    3.6770   -3.5330 c3        1 MOL     -0.170801
     46 C16        -2.0890    2.3770   -2.9920 c         1 MOL      0.719747
     47 O7         -0.9860    2.3400   -2.4160 o         1 MOL     -0.731802
     48 O8         -2.6620    1.2740   -3.0750 o         1 MOL     -0.731802
     49 H21        -1.1400    4.4280   -1.3570 hn        1 MOL      0.234059
     50 H22        -3.2140    5.6310   -3.1080 h1        1 MOL      0.081395
     51 H23        -1.9760    4.0220   -4.3230 hc        1 MOL      0.055807
     52 H24        -3.5640    3.4410   -4.0690 hc        1 MOL      0.055807
     53 N5         -4.2680    3.9370   -0.5850 n         1 MOL      0.029410
     54 C17        -5.3730    3.6260    0.2950 c3        1 MOL     -0.223432
     55 C18        -6.2350    2.4140   -0.0050 c         1 MOL      0.641633
     56 O9         -7.3050    2.3320    0.4830 o         1 MOL     -0.584874
     57 H25        -3.3860    3.8810   -0.0800 hn        1 MOL      0.071757
     58 H26        -6.0170    4.5160    0.3290 h1        1 MOL      0.095756
     59 H27        -5.0300    3.4990    1.3180 h1        1 MOL      0.095756
     60 N6         -5.7020    1.5450   -0.8650 n         1 MOL     -0.303998
     61 C19        -6.2780    0.2860   -1.4300 c3        1 MOL     -0.169649
     62 C20        -6.2550   -0.9370   -0.4580 c         1 MOL      0.164155
     63 O10        -6.5790   -2.0610   -0.7830 o         1 MOL     -0.378887
     64 C21        -5.7000    0.0360   -2.8140 c3        1 MOL     -0.171030
     65 C22        -4.5550   -1.0030   -2.9450 c         1 MOL      0.577125
     66 N7         -4.5100   -1.8860   -3.9270 n         1 MOL     -0.757982
     67 O11        -3.7120   -1.0710   -2.0350 o         1 MOL     -0.507638
     68 H28        -4.7330    1.7540   -1.0560 hn        1 MOL      0.146717
     69 H29        -7.3340    0.5540   -1.5400 h1        1 MOL      0.185218
     70 H30        -5.3480    0.9570   -3.2800 hc        1 MOL      0.100374
     71 H31        -6.4790   -0.2450   -3.5220 hc        1 MOL      0.100374
     72 H32        -5.2550   -1.9610   -4.6030 hn        1 MOL      0.362558
     73 H33        -3.9360   -2.7120   -3.8260 hn        1 MOL      0.362558
     74 N8         -5.7490   -0.7250    0.7740 n         1 MOL      0.115710
     75 C23        -5.9140   -1.4370    1.9590 c3        1 MOL     -0.391661
     76 C24        -4.8310   -2.4770    2.3200 c         1 MOL      0.642577
     77 O12        -5.0870   -3.3040    3.1760 o         1 MOL     -0.579781
     78 H34        -5.3610    0.2080    0.7740 hn        1 MOL      0.232133
     79 H35        -6.9080   -1.8600    1.8450 h1        1 MOL      0.139634
     80 H36        -5.9030   -0.6350    2.6920 h1        1 MOL      0.139634
     81 N9         -3.8020   -2.4930    1.5440 n         1 MOL     -0.271637
     82 C25        -2.6700   -3.4150    1.6060 c3        1 MOL      0.108771
     83 C26        -1.3500   -2.6770    1.3950 c         1 MOL      0.533596
     84 O13        -1.1840   -1.7770    0.5640 o         1 MOL     -0.612635
     85 C27        -2.8060   -4.5290    0.5330 c3        1 MOL      0.065509
     86 C28        -4.1080   -5.3030    0.5700 ca        1 MOL      0.159152
     87 C29        -5.1310   -4.7100   -0.1040 ca        1 MOL     -0.245347
     88 C30        -4.2060   -6.6170    1.0410 ca        1 MOL     -0.245347
     89 C31        -6.3170   -5.4110   -0.2620 ca        1 MOL     -0.222467
     90 C32        -5.4790   -7.3060    0.8990 ca        1 MOL     -0.222467
     91 C33        -6.5170   -6.6700    0.2650 ca        1 MOL      0.348162
     92 O14        -7.7720   -7.2420    0.1870 oh        1 MOL     -0.502592
     93 H37        -3.7310   -1.7800    0.8370 hn        1 MOL      0.131996
     94 H38        -2.5690   -3.8620    2.5940 h1        1 MOL     -0.006027
     95 H39        -2.0640   -5.3040    0.7310 hc        1 MOL     -0.039456
     96 H40        -2.6340   -4.1270   -0.4600 hc        1 MOL     -0.039456
     97 H41        -5.0350   -3.7170   -0.5190 ha        1 MOL      0.139586
     98 H42        -3.3460   -7.0680    1.4970 ha        1 MOL      0.139586
     99 H43        -7.0650   -4.8340   -0.7810 ha        1 MOL      0.123105
    100 H44        -5.6310   -8.2740    1.3280 ha        1 MOL      0.123105
    101 H45        -7.7940   -8.1020    0.6090 ho        1 MOL      0.358519
    102 N10        -0.3500   -3.1330    2.1450 n         1 MOL     -0.505145
    103 C34         1.0600   -2.7280    2.0230 c3        1 MOL      0.017446
    104 C35         1.8770   -3.8680    1.2920 c         1 MOL      0.415280
    105 O15         1.8060   -5.0620    1.6750 o         1 MOL     -0.528302
    106 C36         1.7270   -2.4170    3.3960 c3        1 MOL      0.002148
    107 C37         0.8430   -1.3730    4.0270 c3        1 MOL      0.109543
    108 C38         3.1610   -1.8920    3.1630 c3        1 MOL     -0.164353
    109 C39         1.1570   -1.2150    5.5400 c3        1 MOL     -0.291152
    110 H46        -0.5460   -3.9480    2.7160 hn        1 MOL      0.331294
    111 H47         1.0380   -1.8350    1.4100 h1        1 MOL      0.117575
    112 H48         1.6220   -3.3320    3.9910 hc        1 MOL      0.052048
    113 H49        -0.2380   -1.5340    4.0610 hc        1 MOL      0.033026
    114 H50         0.9500   -0.4250    3.5150 hc        1 MOL      0.033026
    115 H51         3.8780   -2.6490    2.8380 hc        1 MOL      0.026304
    116 H52         3.1890   -1.1420    2.3650 hc        1 MOL      0.026304
    117 H53         3.6200   -1.4110    4.0270 hc        1 MOL      0.026304
    118 H54         2.2050   -0.9540    5.6830 hc        1 MOL      0.064381
    119 H55         0.5860   -0.4340    6.0450 hc        1 MOL      0.064381
    120 H56         0.9230   -2.1960    5.9470 hc        1 MOL      0.064381
    121 N11         2.7020   -3.4060    0.2740 n         1 MOL     -0.120121
    122 C40         3.5950   -4.2050   -0.5860 c3        1 MOL     -0.125781
    123 C41         5.0160   -3.6360   -0.6010 c         1 MOL      0.532015
    124 O16         5.2290   -2.5780   -0.0360 o         1 MOL     -0.399688
    125 C42         2.9850   -4.2170   -1.9880 c3        1 MOL      0.154768
    126 O17         2.8050   -2.9410   -2.5410 oh        1 MOL     -0.566623
    127 H57         2.7610   -2.4120    0.0860 hn        1 MOL      0.205205
    128 H58         3.6420   -5.2120   -0.1730 h1        1 MOL      0.065486
    129 H59         2.0300   -4.7550   -1.9310 h1        1 MOL      0.018116
    130 H60         3.7320   -4.7940   -2.5210 h1        1 MOL      0.018116
    131 H61         2.1600   -2.4760   -1.9990 ho        1 MOL      0.330460
    132 N12         6.0280   -4.4510   -0.8970 n         1 MOL     -0.505057
    133 C43         7.4070   -4.2300   -0.4580 c3        1 MOL      0.188862
    134 C44         7.9360   -2.8170   -0.7930 c         1 MOL      0.368219
    135 O18         8.3870   -2.0590    0.0960 o         1 MOL     -0.523536
    136 C45         8.3410   -5.3530   -1.0210 c3        1 MOL     -0.439458
    137 H62         5.7100   -5.3860   -1.1100 hn        1 MOL      0.310954
    138 H63         7.3790   -4.2270    0.6350 h1        1 MOL      0.064345
    139 H64         8.0200   -6.3090   -0.6220 hc        1 MOL      0.130756
    140 H65         8.3480   -5.3650   -2.1100 hc        1 MOL      0.130756
    141 H66         9.3710   -5.1740   -0.7040 hc        1 MOL      0.130756
    142 N13         7.7780   -2.4170   -2.0400 n         1 MOL     -0.183111
    143 C46         8.2870   -1.1870   -2.6040 c3        1 MOL     -0.036322
    144 C47         7.5420    0.0230   -1.9650 c         1 MOL      0.492889
    145 O19         8.1890    1.0620   -1.8370 o         1 MOL     -0.537787
    146 C48         8.2630   -1.1740   -4.1320 c3        1 MOL     -0.193418
    147 H67         7.4010   -3.1680   -2.6100 hn        1 MOL      0.211123
    148 H68         9.3290   -1.2260   -2.2870 h1        1 MOL      0.114232
    149 H69         8.5940   -2.1030   -4.5940 hc        1 MOL      0.068928
    150 H70         7.2440   -1.1160   -4.5200 hc        1 MOL      0.068928
    151 H71         8.7580   -0.3090   -4.5590 hc        1 MOL      0.068928
    152 N14         6.2850   -0.0020   -1.4570 n         1 MOL     -0.306271
    153 C49         5.6390    1.0810   -0.6960 c3        1 MOL     -0.067445
    154 C50         6.0300    1.0650    0.7600 c         1 MOL      0.446727
    155 O20         5.9300    2.1680    1.3790 o         1 MOL     -0.614242
    156 C51         4.1090    1.0570   -0.9270 c3        1 MOL      0.020298
    157 C52         3.1740    0.4220    0.1190 c3        1 MOL     -0.135790
    158 C53         1.8000    0.1100   -0.5010 c         1 MOL      0.762701
    159 O21         1.4190   -1.0290   -0.8810 o         1 MOL     -0.760529
    160 O22         0.9300    0.9680   -0.5710 o         1 MOL     -0.760529
    161 H72         5.7310   -0.8340   -1.6260 hn        1 MOL      0.159159
    162 H73         6.0290    1.9990   -1.1240 h1        1 MOL      0.114275
    163 H74         3.9090    0.7560   -1.9550 hc        1 MOL      0.031076
    164 H75         3.8730    2.1100   -1.1090 hc        1 MOL      0.031076
    165 H76         3.0770    1.1000    0.9710 hc        1 MOL      0.055561
    166 H77         3.5810   -0.4850    0.5480 hc        1 MOL      0.055561
    167 N15         6.3620   -0.0770    1.3760 n         1 MOL     -0.018755
    168 C54         7.1010    0.0240    2.6640 c3        1 MOL     -0.314941
    169 H78         7.5230    1.0240    2.7630 h1        1 MOL      0.121945
    170 H79         6.4180   -0.1650    3.4920 h1        1 MOL      0.121945
    171 H80         7.9050   -0.7130    2.6800 h1        1 MOL      0.121945
    172 H81         6.1750   -0.9460    0.8990 hn        1 MOL      0.147383
    173 Ca1        -1.1370   -0.2660   -1.5020 Ca        1 MOL      1.761511
    174 O23        -0.2720   -0.3460   -4.1290 oh        1 MOL     -0.805946
    175 H82        -0.0980   -1.0710   -4.7180 ho        1 MOL      0.402666
    176 H83        -0.0310    0.4360   -4.6300 ho        1 MOL      0.402666
    177 O24        -1.0820   -2.7750   -2.4280 oh        1 MOL     -0.805946
    178 H84        -1.8360   -3.2190   -2.8310 ho        1 MOL      0.402666
    179 H85        -0.6610   -3.4440   -1.8920 ho        1 MOL      0.402666
@<TRIPOS>BOND
     1    1    2 1   
     2    1    4 1   
     3    1    5 1   
     4    1    6 1   
     5    2    3 2   
     6    2    7 1   
     7    7    8 1   
     8    7   15 1   
     9    8    9 1   
    10    8   11 1   
    11    8   16 1   
    12    9   10 2   
    13    9   19 1   
    14   11   12 1   
    15   11   17 1   
    16   11   18 1   
    17   12   13 1   
    18   12   14 1   
    19   19   20 1   
    20   19   28 1   
    21   20   21 1   
    22   20   23 1   
    23   20   29 1   
    24   21   22 2   
    25   21   41 1   
    26   23   24 1   
    27   23   30 1   
    28   23   31 1   
    29   24   25 1   
    30   24   32 1   
    31   24   33 1   
    32   25   26 1   
    33   25   34 1   
    34   25   35 1   
    35   26   27 1   
    36   26   36 1   
    37   26   37 1   
    38   27   38 1   
    39   27   39 1   
    40   27   40 1   
    41   41   42 1   
    42   41   49 1   
    43   42   43 1   
    44   42   45 1   
    45   42   50 1   
    46   43   44 2   
    47   43   53 1   
    48   45   46 1   
    49   45   51 1   
    50   45   52 1   
    51   46   47 1   
    52   46   48 1   
    53   53   54 1   
    54   53   57 1   
    55   54   55 1   
    56   54   58 1   
    57   54   59 1   
    58   55   56 2   
    59   55   60 1   
    60   60   61 1   
    61   60   68 1   
    62   61   62 1   
    63   61   64 1   
    64   61   69 1   
    65   62   63 2   
    66   62   74 1   
    67   64   65 1   
    68   64   70 1   
    69   64   71 1   
    70   65   66 1   
    71   65   67 2   
    72   66   72 1   
    73   66   73 1   
    74   74   75 1   
    75   74   78 1   
    76   75   76 1   
    77   75   79 1   
    78   75   80 1   
    79   76   77 2   
    80   76   81 1   
    81   81   82 1   
    82   81   93 1   
    83   82   83 1   
    84   82   85 1   
    85   82   94 1   
    86   83   84 2   
    87   83  102 1   
    88   85   86 1   
    89   85   95 1   
    90   85   96 1   
    91   86   87 ar  
    92   86   88 ar  
    93   87   89 ar  
    94   87   97 1   
    95   88   90 ar  
    96   88   98 1   
    97   89   91 ar  
    98   89   99 1   
    99   90   91 ar  
   100   90  100 1   
   101   91   92 1   
   102   92  101 1   
   103  102  103 1   
   104  102  110 1   
   105  103  104 1   
   106  103  106 1   
   107  103  111 1   
   108  104  105 2   
   109  104  121 1   
   110  106  107 1   
   111  106  108 1   
   112  106  112 1   
   113  107  109 1   
   114  107  113 1   
   115  107  114 1   
   116  108  115 1   
   117  108  116 1   
   118  108  117 1   
   119  109  118 1   
   120  109  119 1   
   121  109  120 1   
   122  121  122 1   
   123  121  127 1   
   124  122  123 1   
   125  122  125 1   
   126  122  128 1   
   127  123  124 2   
   128  123  132 1   
   129  125  126 1   
   130  125  129 1   
   131  125  130 1   
   132  126  131 1   
   133  132  133 1   
   134  132  137 1   
   135  133  134 1   
   136  133  136 1   
   137  133  138 1   
   138  134  135 2   
   139  134  142 1   
   140  136  139 1   
   141  136  140 1   
   142  136  141 1   
   143  142  143 1   
   144  142  147 1   
   145  143  144 1   
   146  143  146 1   
   147  143  148 1   
   148  144  145 2   
   149  144  152 1   
   150  146  149 1   
   151  146  150 1   
   152  146  151 1   
   153  152  153 1   
   154  152  161 1   
   155  153  154 1   
   156  153  156 1   
   157  153  162 1   
   158  154  155 2   
   159  154  167 1   
   160  156  157 1   
   161  156  163 1   
   162  156  164 1   
   163  157  158 1   
   164  157  165 1   
   165  157  166 1   
   166  158  159 1   
   167  158  160 1   
   168  167  168 1   
   169  167  172 1   
   170  168  169 1   
   171  168  170 1   
   172  168  171 1   
   173  174  175 1   
   174  174  176 1   
   175  177  178 1   
   176  177  179 1   
@<TRIPOS>SUBSTRUCTURE
     1 MOL         1 TEMP              0 ****  ****    0 ROOT
