@<TRIPOS>MOLECULE
MOL
  179   176     1     0     0
SMALL
resp


@<TRIPOS>ATOM
      1 C1          3.0900    3.1710    4.0640 c3        1 MOL     -0.305054
      2 C2          2.1850    2.9550    2.8590 c         1 MOL      0.744684
      3 O1          2.7090    2.8480    1.7190 o         1 MOL     -0.581827
      4 H1          3.6270    4.1130    3.9510 hc        1 MOL      0.069377
      5 H2          2.4860    3.2060    4.9710 hc        1 MOL      0.069377
      6 H3          3.8050    2.3510    4.1350 hc        1 MOL      0.069377
      7 N1          0.8690    2.9700    3.1270 n         1 MOL     -0.738437
      8 C3         -0.1830    2.8410    2.1020 c3        1 MOL      0.368358
      9 C4         -0.6870    4.1740    1.5230 c         1 MOL      0.481558
     10 O2         -1.8510    4.5420    1.8240 o         1 MOL     -0.451359
     11 C5         -1.3630    1.9510    2.6010 c3        1 MOL     -0.336751
     12 C6         -2.4490    1.7840    1.5220 c         1 MOL      0.772309
     13 O3         -3.6890    1.8530    1.7700 o         1 MOL     -0.714996
     14 O4         -2.0550    1.4570    0.3890 o         1 MOL     -0.714996
     15 H4          0.5700    3.1140    4.0810 hn        1 MOL      0.362910
     16 H5          0.2340    2.2650    1.2740 h1        1 MOL      0.011622
     17 H6         -1.7600    2.3600    3.5260 hc        1 MOL      0.066354
     18 H7         -1.0440    0.9210    2.7840 hc        1 MOL      0.066354
     19 N2          0.2540    4.9350    0.8270 n         1 MOL     -0.474740
     20 C7          0.1040    6.2910    0.3490 c3        1 MOL     -0.029867
     21 C8         -0.8980    6.3570   -0.7190 c         1 MOL      0.425833
     22 O5         -1.7010    7.3280   -0.7060 o         1 MOL     -0.539289
     23 C9          1.4650    6.8120   -0.0780 c3        1 MOL     -0.187904
     24 C10         2.5770    6.7230    1.0290 c3        1 MOL      0.334687
     25 C11         3.8470    7.1830    0.4530 c3        1 MOL      0.192900
     26 C12         5.1250    7.1280    1.2590 c3        1 MOL      0.009728
     27 N3          5.0440    7.9430    2.5150 n4        1 MOL     -0.381260
     28 H8          1.1590    4.5620    0.5840 hn        1 MOL      0.325316
     29 H9         -0.2730    6.8760    1.1830 h1        1 MOL      0.109021
     30 H10         1.3730    7.8570   -0.3670 hc        1 MOL      0.071250
     31 H11         1.7530    6.3580   -1.0290 hc        1 MOL      0.071250
     32 H12         2.7170    5.7210    1.4500 hc        1 MOL     -0.129848
     33 H13         2.4020    7.4280    1.8300 hc        1 MOL     -0.129848
     34 H14         3.7690    8.2100    0.0850 hc        1 MOL     -0.042450
     35 H15         4.0620    6.6010   -0.4400 hc        1 MOL     -0.042450
     36 H16         5.8900    7.4810    0.5610 hx        1 MOL      0.093361
     37 H17         5.4750    6.1110    1.4390 hx        1 MOL      0.093361
     38 H18         5.8870    7.8630    3.0740 hn        1 MOL      0.327890
     39 H19         4.7920    8.9170    2.4280 hn        1 MOL      0.327890
     40 H20         4.3380    7.4990    3.0940 hn        1 MOL      0.327890
     41 N4         -1.1760    5.3680   -1.5580 n         1 MOL     -0.213904
     42 C13        -2.2140    5.2980   -2.5640 c3        1 MOL     -0.014334
     43 C14        -3.6600    5.2090   -1.9240 c         1 MOL      0.542827
     44 O6         -4.4880    5.9760   -2.3560 o         1 MOL     -0.555641
     45 C15        -2.0060    4.2000   -3.5760 c3        1 MOL     -0.215312
     46 C16        -1.7540    2.8180   -2.8520 c         1 MOL      0.785294
     47 O7         -0.6060    2.4000   -2.8350 o         1 MOL     -0.687838
     48 O8         -2.7240    2.0510   -2.5620 o         1 MOL     -0.687838
     49 H21        -0.6280    4.5310   -1.4340 hn        1 MOL      0.151063
     50 H22        -2.1760    6.2490   -3.1000 h1        1 MOL      0.085505
     51 H23        -1.1830    4.4930   -4.2400 hc        1 MOL      0.056853
     52 H24        -2.9060    4.1960   -4.1930 hc        1 MOL      0.056853
     53 N5         -3.8150    4.3280   -0.9020 n         1 MOL     -0.118364
     54 C17        -5.0090    4.1740   -0.0990 c3        1 MOL     -0.197455
     55 C18        -5.9490    2.9500   -0.3420 c         1 MOL      0.508529
     56 O9         -7.0800    2.9580    0.1120 o         1 MOL     -0.594678
     57 H25        -3.0010    3.7520   -0.7350 hn        1 MOL      0.112504
     58 H26        -5.6580    5.0470   -0.1760 h1        1 MOL      0.119489
     59 H27        -4.7690    4.1030    0.9630 h1        1 MOL      0.119489
     60 N6         -5.4470    1.8610   -0.8930 n         1 MOL      0.046169
     61 C19        -6.3500    0.7570   -1.3340 c3        1 MOL     -0.169285
     62 C20        -6.6290   -0.2810   -0.2060 c         1 MOL      0.336849
     63 O10        -7.2920   -1.2780   -0.4290 o         1 MOL     -0.430638
     64 C21        -5.7600    0.1490   -2.6250 c3        1 MOL     -0.164610
     65 C22        -4.6200   -0.8810   -2.4030 c         1 MOL      0.416613
     66 N7         -4.4120   -1.7650   -3.3740 n         1 MOL     -0.745321
     67 O11        -3.9870   -1.0600   -1.4160 o         1 MOL     -0.123593
     68 H28        -4.4670    1.9300   -1.1460 hn        1 MOL     -0.192730
     69 H29        -7.3320    1.1420   -1.6070 h1        1 MOL      0.149895
     70 H30        -5.4080    0.9300   -3.2980 hc        1 MOL      0.098583
     71 H31        -6.5690   -0.3440   -3.1620 hc        1 MOL      0.098583
     72 H32        -5.0940   -1.6960   -4.1060 hn        1 MOL      0.347062
     73 H33        -3.7570   -2.5120   -3.1740 hn        1 MOL      0.347062
     74 N8         -6.0740   -0.0010    1.0080 n         1 MOL     -0.202786
     75 C23        -6.1580   -0.8530    2.2070 c3        1 MOL     -0.263718
     76 C24        -5.0720   -1.9590    2.3490 c         1 MOL      0.633221
     77 O12        -4.9940   -2.7850    3.2660 o         1 MOL     -0.611780
     78 H34        -5.6670    0.9130    1.0880 hn        1 MOL      0.339362
     79 H35        -7.1510   -1.2880    2.1940 h1        1 MOL      0.129416
     80 H36        -6.1430   -0.2230    3.1040 h1        1 MOL      0.129416
     81 N9         -4.0590   -1.9800    1.4900 n         1 MOL     -0.168528
     82 C25        -3.0680   -3.0880    1.4900 c3        1 MOL      0.024871
     83 C26        -1.6400   -2.5990    1.3500 c         1 MOL      0.513092
     84 O13        -1.4020   -1.5740    0.6860 o         1 MOL     -0.630291
     85 C27        -3.3780   -4.0300    0.3770 c3        1 MOL      0.022643
     86 C28        -4.6350   -4.8780    0.4830 ca        1 MOL     -0.207582
     87 C29        -5.8740   -4.3310    0.1690 ca        1 MOL      0.077691
     88 C30        -4.5420   -6.1730    1.0170 ca        1 MOL      0.077691
     89 C31        -7.0190   -5.1700    0.3640 ca        1 MOL     -0.422725
     90 C32        -5.6200   -7.0320    1.0820 ca        1 MOL     -0.422725
     91 C33        -6.8590   -6.4690    0.8450 ca        1 MOL      0.486783
     92 O14        -8.0140   -7.1680    0.9420 oh        1 MOL     -0.508972
     93 H37        -4.1240   -1.3390    0.7110 hn        1 MOL     -0.016299
     94 H38        -3.2270   -3.7200    2.3700 h1        1 MOL      0.076919
     95 H39        -2.5230   -4.7060    0.2970 hc        1 MOL     -0.000670
     96 H40        -3.4510   -3.3400   -0.4650 hc        1 MOL     -0.000670
     97 H41        -5.9880   -3.3110   -0.1890 ha        1 MOL      0.065604
     98 H42        -3.5610   -6.5660    1.2380 ha        1 MOL      0.065604
     99 H43        -8.0130   -4.7820    0.2140 ha        1 MOL      0.166865
    100 H44        -5.6390   -8.0760    1.3650 ha        1 MOL      0.166865
    101 H45        -7.9220   -8.0600    1.2790 ho        1 MOL      0.352172
    102 N10        -0.6550   -3.2170    1.9320 n         1 MOL     -0.425941
    103 C34         0.7840   -2.8760    1.8370 c3        1 MOL      0.147253
    104 C35         1.3530   -4.0010    0.9600 c         1 MOL      0.469587
    105 O15         1.1600   -5.2080    1.2120 o         1 MOL     -0.562612
    106 C36         1.4190   -2.7150    3.2410 c3        1 MOL      0.000645
    107 C37         0.8870   -1.4760    3.9870 c3        1 MOL      0.013545
    108 C38         2.9260   -2.5450    3.0560 c3        1 MOL     -0.160550
    109 C39         1.2900   -1.3790    5.4430 c3        1 MOL     -0.101980
    110 H46        -0.8160   -4.0500    2.4870 hn        1 MOL      0.275923
    111 H47         0.8430   -1.9230    1.3010 h1        1 MOL      0.040324
    112 H48         1.1200   -3.5580    3.8710 hc        1 MOL      0.030725
    113 H49        -0.1950   -1.4600    3.8670 hc        1 MOL      0.035478
    114 H50         1.1410   -0.5590    3.4570 hc        1 MOL      0.035478
    115 H51         3.3930   -2.4480    4.0330 hc        1 MOL      0.016487
    116 H52         3.3640   -3.3400    2.4470 hc        1 MOL      0.016487
    117 H53         3.2240   -1.6790    2.4670 hc        1 MOL      0.016487
    118 H54         0.9240   -2.2350    6.0200 hc        1 MOL      0.028695
    119 H55         2.3570   -1.2330    5.6090 hc        1 MOL      0.028695
    120 H56         0.8020   -0.5140    5.8950 hc        1 MOL      0.028695
    121 N11         2.0380   -3.5680   -0.1050 n         1 MOL     -0.273163
    122 C40         2.8490   -4.4720   -0.8930 c3        1 MOL      0.114498
    123 C41         4.3530   -4.1320   -0.6090 c         1 MOL      0.405793
    124 O16         4.6200   -3.0280   -0.1470 o         1 MOL     -0.310615
    125 C42         2.6400   -4.5050   -2.3240 c3        1 MOL      0.093283
    126 O17         1.2510   -4.6070   -2.5650 oh        1 MOL     -0.591801
    127 H57         2.1880   -2.5680   -0.1950 hn        1 MOL      0.319912
    128 H58         2.7490   -5.5030   -0.5590 h1        1 MOL      0.057938
    129 H59         3.1550   -5.3740   -2.7230 h1        1 MOL      0.022091
    130 H60         3.0250   -3.5870   -2.7750 h1        1 MOL      0.022091
    131 H61         1.1410   -5.5460   -2.7390 ho        1 MOL      0.406170
    132 N12         5.3180   -5.0160   -0.9100 n         1 MOL     -0.675300
    133 C43         6.6780   -4.7870   -0.4550 c3        1 MOL      0.347137
    134 C44         7.4310   -3.5210   -0.8640 c         1 MOL      0.423152
    135 O18         8.0230   -2.9540    0.0240 o         1 MOL     -0.489280
    136 C45         7.5280   -5.9710   -0.8230 c3        1 MOL     -0.406291
    137 H62         5.0820   -5.9010   -1.3280 hn        1 MOL      0.356687
    138 H63         6.6510   -4.7310    0.6350 h1        1 MOL      0.047588
    139 H64         7.1100   -6.9640   -0.6310 hc        1 MOL      0.110877
    140 H65         7.7340   -5.9540   -1.8910 hc        1 MOL      0.110877
    141 H66         8.4600   -5.8470   -0.2700 hc        1 MOL      0.110877
    142 N13         7.3430   -2.9920   -2.1050 n         1 MOL     -0.414572
    143 C46         8.0000   -1.7040   -2.4970 c3        1 MOL      0.190801
    144 C47         7.4480   -0.5800   -1.6970 c         1 MOL      0.442317
    145 O19         8.1900    0.2600   -1.2660 o         1 MOL     -0.513652
    146 C48         7.6460   -1.4600   -4.0010 c3        1 MOL     -0.388245
    147 H67         6.9390   -3.5430   -2.8410 hn        1 MOL      0.258137
    148 H68         9.0680   -1.7790   -2.3370 h1        1 MOL      0.064020
    149 H69         6.6500   -1.8750   -4.1540 hc        1 MOL      0.110692
    150 H70         7.7140   -0.3880   -4.1980 hc        1 MOL      0.110692
    151 H71         8.3040   -1.9980   -4.6870 hc        1 MOL      0.110692
    152 N14         6.1550   -0.5090   -1.4300 n         1 MOL     -0.254628
    153 C49         5.4950    0.5400   -0.6880 c3        1 MOL     -0.110442
    154 C50         6.1280    0.5470    0.7110 c         1 MOL      0.334567
    155 O20         6.2830    1.6150    1.3940 o         1 MOL     -0.561554
    156 C51         4.0310    0.2040   -0.4650 c3        1 MOL      0.212910
    157 C52         3.2310    0.0920   -1.7890 c3        1 MOL     -0.279485
    158 C53         1.6860   -0.0330   -1.5820 c         1 MOL      0.824934
    159 O21         1.0400   -0.9100   -2.1060 o         1 MOL     -0.759307
    160 O22         1.1310    0.7920   -0.7820 o         1 MOL     -0.759307
    161 H72         5.5730   -1.2980   -1.6690 hn        1 MOL      0.171126
    162 H73         5.5590    1.5090   -1.1900 h1        1 MOL      0.143071
    163 H74         3.5910    1.0360    0.0800 hc        1 MOL     -0.006017
    164 H75         3.8170   -0.7120    0.0770 hc        1 MOL     -0.006017
    165 H76         3.5970   -0.7630   -2.3540 hc        1 MOL      0.030051
    166 H77         3.3370    1.0170   -2.3580 hc        1 MOL      0.030051
    167 N15         6.4630   -0.6110    1.3030 n         1 MOL      0.103832
    168 C54         7.0880   -0.7070    2.6200 c3        1 MOL     -0.376559
    169 H78         7.6340    0.2130    2.8300 h1        1 MOL      0.133935
    170 H79         6.3190   -0.8540    3.3780 h1        1 MOL      0.133935
    171 H80         7.7790   -1.5500    2.6340 h1        1 MOL      0.133935
    172 H81         6.3380   -1.4440    0.7410 hn        1 MOL      0.010878
    173 Ca1        -1.4210    0.0530   -1.5260 Ca        1 MOL      1.666717
    174 O23        -1.3160   -2.5880   -2.1260 oh        1 MOL     -0.818211
    175 H82        -0.3710   -2.7220   -2.1840 ho        1 MOL      0.395561
    176 H83        -1.6850   -3.2460   -2.7150 ho        1 MOL      0.395561
    177 O24        -1.5740   -0.4230   -4.1310 oh        1 MOL     -0.818211
    178 H84        -1.6280   -1.3400   -4.3890 ho        1 MOL      0.395561
    179 H85        -1.7820    0.0750   -4.9200 ho        1 MOL      0.395561
@<TRIPOS>BOND
     1    1    2 1   
     2    1    4 1   
     3    1    5 1   
     4    1    6 1   
     5    2    3 2   
     6    2    7 1   
     7    7    8 1   
     8    7   15 1   
     9    8    9 1   
    10    8   11 1   
    11    8   16 1   
    12    9   10 2   
    13    9   19 1   
    14   11   12 1   
    15   11   17 1   
    16   11   18 1   
    17   12   13 1   
    18   12   14 1   
    19   19   20 1   
    20   19   28 1   
    21   20   21 1   
    22   20   23 1   
    23   20   29 1   
    24   21   22 2   
    25   21   41 1   
    26   23   24 1   
    27   23   30 1   
    28   23   31 1   
    29   24   25 1   
    30   24   32 1   
    31   24   33 1   
    32   25   26 1   
    33   25   34 1   
    34   25   35 1   
    35   26   27 1   
    36   26   36 1   
    37   26   37 1   
    38   27   38 1   
    39   27   39 1   
    40   27   40 1   
    41   41   42 1   
    42   41   49 1   
    43   42   43 1   
    44   42   45 1   
    45   42   50 1   
    46   43   44 2   
    47   43   53 1   
    48   45   46 1   
    49   45   51 1   
    50   45   52 1   
    51   46   47 1   
    52   46   48 1   
    53   53   54 1   
    54   53   57 1   
    55   54   55 1   
    56   54   58 1   
    57   54   59 1   
    58   55   56 2   
    59   55   60 1   
    60   60   61 1   
    61   60   68 1   
    62   61   62 1   
    63   61   64 1   
    64   61   69 1   
    65   62   63 2   
    66   62   74 1   
    67   64   65 1   
    68   64   70 1   
    69   64   71 1   
    70   65   66 1   
    71   65   67 2   
    72   66   72 1   
    73   66   73 1   
    74   74   75 1   
    75   74   78 1   
    76   75   76 1   
    77   75   79 1   
    78   75   80 1   
    79   76   77 2   
    80   76   81 1   
    81   81   82 1   
    82   81   93 1   
    83   82   83 1   
    84   82   85 1   
    85   82   94 1   
    86   83   84 2   
    87   83  102 1   
    88   85   86 1   
    89   85   95 1   
    90   85   96 1   
    91   86   87 ar  
    92   86   88 ar  
    93   87   89 ar  
    94   87   97 1   
    95   88   90 ar  
    96   88   98 1   
    97   89   91 ar  
    98   89   99 1   
    99   90   91 ar  
   100   90  100 1   
   101   91   92 1   
   102   92  101 1   
   103  102  103 1   
   104  102  110 1   
   105  103  104 1   
   106  103  106 1   
   107  103  111 1   
   108  104  105 2   
   109  104  121 1   
   110  106  107 1   
   111  106  108 1   
   112  106  112 1   
   113  107  109 1   
   114  107  113 1   
   115  107  114 1   
   116  108  115 1   
   117  108  116 1   
   118  108  117 1   
   119  109  118 1   
   120  109  119 1   
   121  109  120 1   
   122  121  122 1   
   123  121  127 1   
   124  122  123 1   
   125  122  125 1   
   126  122  128 1   
   127  123  124 2   
   128  123  132 1   
   129  125  126 1   
   130  125  129 1   
   131  125  130 1   
   132  126  131 1   
   133  132  133 1   
   134  132  137 1   
   135  133  134 1   
   136  133  136 1   
   137  133  138 1   
   138  134  135 2   
   139  134  142 1   
   140  136  139 1   
   141  136  140 1   
   142  136  141 1   
   143  142  143 1   
   144  142  147 1   
   145  143  144 1   
   146  143  146 1   
   147  143  148 1   
   148  144  145 2   
   149  144  152 1   
   150  146  149 1   
   151  146  150 1   
   152  146  151 1   
   153  152  153 1   
   154  152  161 1   
   155  153  154 1   
   156  153  156 1   
   157  153  162 1   
   158  154  155 2   
   159  154  167 1   
   160  156  157 1   
   161  156  163 1   
   162  156  164 1   
   163  157  158 1   
   164  157  165 1   
   165  157  166 1   
   166  158  159 1   
   167  158  160 1   
   168  167  168 1   
   169  167  172 1   
   170  168  169 1   
   171  168  170 1   
   172  168  171 1   
   173  174  175 1   
   174  174  176 1   
   175  177  178 1   
   176  177  179 1   
@<TRIPOS>SUBSTRUCTURE
     1 MOL         1 TEMP              0 ****  ****    0 ROOT
