@<TRIPOS>MOLECULE
MOL
  189   185     1     0     0
SMALL
resp


@<TRIPOS>ATOM
      1 C1          0.4810    1.8080    6.2380 c3        1 MOL     -0.372517
      2 C2          0.0520    1.8990    4.7820 c         1 MOL      0.780587
      3 O1          0.7700    2.5170    4.0280 o         1 MOL     -0.616652
      4 H1          0.5170    2.8090    6.6680 hc        1 MOL      0.094414
      5 H2         -0.2350    1.2010    6.7910 hc        1 MOL      0.094414
      6 H3          1.4690    1.3510    6.2980 hc        1 MOL      0.094414
      7 N1         -1.0820    1.3740    4.3620 n         1 MOL     -0.637717
      8 C3         -1.5620    1.3330    2.9490 c3        1 MOL      0.177455
      9 C4         -2.0970    2.7370    2.4730 c         1 MOL      0.493752
     10 O2         -2.8700    3.4700    3.1990 o         1 MOL     -0.552017
     11 C5         -2.6440    0.2220    2.8640 c3        1 MOL     -0.298876
     12 C6         -3.5010    0.0120    1.5630 c         1 MOL      0.822786
     13 O3         -3.0310    0.2660    0.4090 o         1 MOL     -0.683383
     14 O4         -4.6570   -0.4010    1.7540 o         1 MOL     -0.683383
     15 H4         -1.6800    0.9840    5.0800 hn        1 MOL      0.337988
     16 H5         -0.7910    1.0340    2.2340 h1        1 MOL      0.071581
     17 H6         -3.3860    0.3920    3.6470 hc        1 MOL      0.052552
     18 H7         -2.0640   -0.6830    3.0210 hc        1 MOL      0.052552
     19 N2         -1.5810    3.1850    1.2910 n         1 MOL     -0.332642
     20 C7         -1.7530    4.5390    0.8510 c3        1 MOL      0.287540
     21 C8         -2.7560    4.7800   -0.3140 c         1 MOL      0.492302
     22 O5         -3.1640    5.9170   -0.5530 o         1 MOL     -0.588809
     23 C9         -0.3190    5.0670    0.4890 c3        1 MOL     -0.100318
     24 C10        -0.2860    6.6050    0.3030 c3        1 MOL     -0.031304
     25 C11        -0.9890    7.4000    1.3980 c3        1 MOL      0.005792
     26 C12        -0.4960    8.8900    1.5110 c3        1 MOL      0.017041
     27 N3         -1.3720    9.6990    2.3210 n4        1 MOL     -0.496318
     28 H8         -1.0810    2.4790    0.7640 hn        1 MOL      0.058230
     29 H9         -2.1630    5.1740    1.6430 h1        1 MOL     -0.068400
     30 H10         0.1640    4.5590   -0.3490 hc        1 MOL      0.073213
     31 H11         0.3400    4.9780    1.3590 hc        1 MOL      0.073213
     32 H12        -0.7830    6.8520   -0.6330 hc        1 MOL     -0.007048
     33 H13         0.7270    6.9980    0.2100 hc        1 MOL     -0.007048
     34 H14        -0.7090    6.8050    2.2720 hc        1 MOL      0.058704
     35 H15        -2.0530    7.4330    1.1550 hc        1 MOL      0.058704
     36 H16        -0.4730    9.3060    0.5090 hx        1 MOL      0.084460
     37 H17         0.4540    8.9500    2.0280 hx        1 MOL      0.084460
     38 H18        -2.3190    9.6370    1.9650 hn        1 MOL      0.366693
     39 H19        -1.2300    9.4650    3.2910 hn        1 MOL      0.366693
     40 H20        -1.0840   10.6650    2.2320 hn        1 MOL      0.366693
     41 N4         -3.2300    3.7370   -0.9140 n         1 MOL     -0.365391
     42 C13        -4.2480    3.8160   -1.9960 c3        1 MOL      0.008236
     43 C14        -5.4720    2.8290   -1.7650 c         1 MOL      0.396512
     44 O6         -6.2160    2.4740   -2.6820 o         1 MOL     -0.467499
     45 C15        -3.6340    3.4400   -3.3930 c3        1 MOL     -0.104475
     46 C16        -2.7790    2.1530   -3.4150 c         1 MOL      0.768761
     47 O7         -2.7100    1.3780   -2.4010 o         1 MOL     -0.709760
     48 O8         -2.1570    1.9500   -4.4850 o         1 MOL     -0.709760
     49 H21        -2.7910    2.8410   -0.7510 hn        1 MOL      0.248870
     50 H22        -4.5650    4.8420   -2.1360 h1        1 MOL      0.099528
     51 H23        -3.0290    4.2490   -3.7860 hc        1 MOL      0.021774
     52 H24        -4.4830    3.2650   -4.0580 hc        1 MOL      0.021774
     53 N5         -5.5700    2.3020   -0.5320 n         1 MOL     -0.284056
     54 C17        -6.7820    1.7450    0.0130 c3        1 MOL     -0.110424
     55 C18        -7.2120    0.4020   -0.5840 c         1 MOL      0.499924
     56 O9         -8.3790    0.1050   -0.7300 o         1 MOL     -0.582751
     57 H25        -4.7180    2.3540    0.0060 hn        1 MOL      0.199476
     58 H26        -7.6370    2.4200   -0.0840 h1        1 MOL      0.086583
     59 H27        -6.6640    1.5910    1.0910 h1        1 MOL      0.086583
     60 N6         -6.2720   -0.4310   -1.0690 n         1 MOL     -0.163118
     61 C19        -6.6030   -1.7860   -1.6460 c3        1 MOL     -0.172629
     62 C20        -6.6700   -2.9990   -0.6820 c         1 MOL      0.410313
     63 O10        -6.9920   -4.1100   -1.0680 o         1 MOL     -0.509480
     64 C21        -5.6570   -1.9980   -2.8660 c3        1 MOL     -0.176119
     65 C22        -4.2140   -1.9780   -2.4440 c         1 MOL      0.588630
     66 O11        -3.3930   -1.5220   -3.2800 o         1 MOL     -0.656140
     67 O12        -3.8380   -2.3190   -1.2920 o         1 MOL     -0.656140
     68 H28        -5.3050   -0.1710   -0.9730 hn        1 MOL      0.225454
     69 H29        -7.6260   -1.6950   -2.0180 h1        1 MOL      0.154255
     70 H30        -5.8440   -1.2870   -3.6660 hc        1 MOL      0.081015
     71 H31        -5.9180   -2.9760   -3.2630 hc        1 MOL      0.081015
     72 N7         -6.2830   -2.8000    0.5650 n         1 MOL     -0.133427
     73 C23        -6.2500   -3.8130    1.5950 c3        1 MOL     -0.154533
     74 C24        -5.0090   -4.7200    1.5010 c         1 MOL      0.585136
     75 O13        -4.9580   -5.9080    1.8740 o         1 MOL     -0.575561
     76 H32        -6.1850   -1.8610    0.9140 hn        1 MOL      0.212351
     77 H33        -7.1300   -4.4620    1.5630 h1        1 MOL      0.080127
     78 H34        -6.2190   -3.4180    2.6100 h1        1 MOL      0.080127
     79 N8         -3.9020   -4.0970    1.0380 n         1 MOL     -0.332065
     80 C25        -2.5650   -4.6700    0.8900 c3        1 MOL     -0.199885
     81 C26        -1.4340   -3.6150    1.0720 c         1 MOL      0.820278
     82 O14        -1.6550   -2.4620    0.7460 o         1 MOL     -0.665149
     83 C27        -2.3200   -5.3920   -0.4700 c3        1 MOL      0.675901
     84 C28        -2.6640   -6.8810   -0.4410 c3        1 MOL     -0.420534
     85 O15        -3.1400   -4.8490   -1.5070 oh        1 MOL     -0.791760
     86 H35        -3.9910   -3.1780    0.6330 hn        1 MOL      0.186146
     87 H36        -2.4840   -5.5090    1.5830 h1        1 MOL      0.078192
     88 H37        -1.2710   -5.4120   -0.7770 h1        1 MOL     -0.077911
     89 H38        -3.5990   -4.0130   -1.4060 ho        1 MOL      0.553961
     90 H39        -2.6400   -7.2120   -1.4780 hc        1 MOL      0.094610
     91 H40        -1.9330   -7.4950    0.0980 hc        1 MOL      0.094610
     92 H41        -3.6990   -6.9660   -0.1100 hc        1 MOL      0.094610
     93 N9         -0.2930   -4.0630    1.5140 n         1 MOL     -0.792335
     94 C29         0.9550   -3.2610    1.6700 c3        1 MOL      0.094210
     95 C30         2.1020   -3.7420    0.7920 c         1 MOL      0.566095
     96 O16         2.7640   -4.7780    1.0570 o         1 MOL     -0.547393
     97 C31         1.3910   -3.2820    3.1370 c3        1 MOL      0.286953
     98 C32         0.3140   -2.8400    4.1060 c3        1 MOL      0.254356
     99 C33         2.7070   -2.5620    3.3920 c3        1 MOL     -0.300676
    100 C34         0.6500   -3.0370    5.5920 c3        1 MOL     -0.229189
    101 H42        -0.1670   -5.0620    1.6370 hn        1 MOL      0.332198
    102 H43         0.7280   -2.2580    1.3130 h1        1 MOL      0.081960
    103 H44         1.6130   -4.3030    3.4400 hc        1 MOL     -0.052391
    104 H45        -0.6380   -3.3300    3.9210 hc        1 MOL     -0.057194
    105 H46         0.1550   -1.7810    3.9400 hc        1 MOL     -0.057194
    106 H47         3.4140   -2.9110    2.6480 hc        1 MOL      0.045752
    107 H48         2.5920   -1.4820    3.3190 hc        1 MOL      0.045752
    108 H49         3.2340   -2.8150    4.3190 hc        1 MOL      0.045752
    109 H50         1.5670   -2.5270    5.8820 hc        1 MOL      0.038184
    110 H51        -0.1850   -2.5870    6.1320 hc        1 MOL      0.038184
    111 H52         0.6050   -4.1140    5.7690 hc        1 MOL      0.038184
    112 N10         2.4320   -2.9020   -0.2270 n         1 MOL     -0.356670
    113 C35         3.6570   -3.0100   -1.0200 c3        1 MOL     -0.037556
    114 C36         4.9490   -2.6600   -0.2320 c         1 MOL      0.396712
    115 O17         4.8410   -1.9570    0.8190 o         1 MOL     -0.327823
    116 C37         3.5430   -2.2090   -2.2960 c3        1 MOL      0.145424
    117 C38         2.3950   -2.5670   -3.1920 c3        1 MOL     -0.379710
    118 O18         3.5710   -0.8600   -2.0270 oh        1 MOL     -0.514381
    119 H53         1.9340   -2.0260   -0.2610 hn        1 MOL      0.168036
    120 H54         3.7460   -4.0720   -1.2500 h1        1 MOL      0.096813
    121 H55         4.4830   -2.2600   -2.8570 h1        1 MOL      0.094174
    122 H56         2.7640   -0.5730   -1.6070 ho        1 MOL      0.397459
    123 H57         1.4770   -2.2400   -2.7100 hc        1 MOL      0.119610
    124 H58         2.4770   -2.0320   -4.1350 hc        1 MOL      0.119610
    125 H59         2.5380   -3.6250   -3.4170 hc        1 MOL      0.119610
    126 N11         6.0890   -2.9220   -0.8320 n         1 MOL     -0.323910
    127 C39         7.4620   -2.3920   -0.5630 c3        1 MOL      0.019580
    128 C40         7.4280   -0.8450   -0.3890 c         1 MOL      0.349990
    129 O19         8.0140   -0.2470    0.5510 o         1 MOL     -0.474629
    130 C41         8.2960   -2.7330   -1.7240 c3        1 MOL      0.231184
    131 C42         8.7030   -4.2080   -1.6950 c3        1 MOL     -0.382367
    132 O20         7.5430   -2.4620   -2.9240 oh        1 MOL     -0.687829
    133 H60         6.0300   -3.4220   -1.7070 hn        1 MOL      0.232277
    134 H61         7.9670   -2.7200    0.3480 h1        1 MOL      0.112585
    135 H62         9.2170   -2.1800   -1.5940 h1        1 MOL      0.076499
    136 H63         7.8990   -3.0690   -3.5710 ho        1 MOL      0.451116
    137 H64         9.4910   -4.3140   -2.4440 hc        1 MOL      0.111942
    138 H65         9.0270   -4.5420   -0.7080 hc        1 MOL      0.111942
    139 H66         7.9690   -4.9140   -2.0690 hc        1 MOL      0.111942
    140 N12         6.6600   -0.1500   -1.2610 n         1 MOL     -0.164011
    141 C43         6.4630    1.2820   -1.2790 c3        1 MOL     -0.307629
    142 C44         5.6970    1.8630   -0.1410 c         1 MOL      0.566784
    143 O21         5.9630    2.9820    0.2340 o         1 MOL     -0.561076
    144 C45         5.7900    1.7200   -2.6280 c3        1 MOL     -0.109172
    145 C46         5.7730    3.2490   -2.8480 c3        1 MOL      0.176325
    146 C47         5.4000    3.5860   -4.2920 c3        1 MOL     -0.237689
    147 C48         3.9630    3.2320   -4.5490 c3        1 MOL      0.198305
    148 N13         3.6020    3.3480   -5.9640 n4        1 MOL     -0.418005
    149 H67         6.1140   -0.6680   -1.9310 hn        1 MOL      0.270790
    150 H68         7.4330    1.7700   -1.2070 h1        1 MOL      0.182341
    151 H69         4.7640    1.3710   -2.7210 hc        1 MOL      0.042384
    152 H70         6.2670    1.1370   -3.4050 hc        1 MOL      0.042384
    153 H71         6.6910    3.7170   -2.5120 hc        1 MOL      0.010559
    154 H72         4.9880    3.7160   -2.2570 hc        1 MOL      0.010559
    155 H73         6.0630    2.9890   -4.9060 hc        1 MOL      0.062092
    156 H74         5.4360    4.6710   -4.3960 hc        1 MOL      0.062092
    157 H75         3.3590    3.8820   -3.9140 hx        1 MOL      0.056101
    158 H76         3.8120    2.2400   -4.1190 hx        1 MOL      0.056101
    159 H77         3.8250    4.2190   -6.4250 hn        1 MOL      0.338734
    160 H78         4.1040    2.7080   -6.5540 hn        1 MOL      0.338734
    161 H79         2.6070    3.2680   -6.0700 hn        1 MOL      0.338734
    162 N14         4.8930    1.0030    0.5230 n         1 MOL      0.115572
    163 C49         4.0520    1.4110    1.6770 c3        1 MOL     -0.019166
    164 C50         4.6480    1.2340    3.0540 c         1 MOL      0.373389
    165 O22         4.6510    2.2280    3.8870 o         1 MOL     -0.529058
    166 C51         2.6830    0.7930    1.5720 c3        1 MOL      0.304023
    167 C52         1.8600    1.6030    0.5800 c3        1 MOL      0.088464
    168 C53         0.7820    0.8580   -0.1890 c         1 MOL      0.392077
    169 O23         0.8160   -0.3780   -0.4270 o         1 MOL     -0.591470
    170 O24        -0.2390    1.4800   -0.5640 o         1 MOL     -0.591470
    171 H80         4.7720    0.0540    0.1970 hn        1 MOL     -0.267571
    172 H81         3.8040    2.4690    1.5930 h1        1 MOL      0.027997
    173 H82         2.1170    0.8470    2.5080 hc        1 MOL     -0.067187
    174 H83         2.8250   -0.2720    1.3820 hc        1 MOL     -0.067187
    175 H84         2.5710    2.0870   -0.0850 hc        1 MOL     -0.041278
    176 H85         1.4500    2.4430    1.1530 hc        1 MOL     -0.041278
    177 N15         5.4060    0.1550    3.2900 n         1 MOL     -0.116719
    178 C54         6.4020    0.1890    4.3180 c3        1 MOL     -0.281674
    179 H86         6.4140    1.1770    4.7800 h1        1 MOL      0.110437
    180 H87         6.1720   -0.5620    5.0740 h1        1 MOL      0.110437
    181 H88         7.3810   -0.0190    3.8850 h1        1 MOL      0.110437
    182 H89         5.5100   -0.5010    2.5230 hn        1 MOL      0.195566
    183 Ca1        -1.6260   -0.7270   -1.3280 Ca        1 MOL      1.726450
    184 O25        -0.9520   -3.3070   -2.2870 oh        1 MOL     -0.910240
    185 H90        -1.5000   -4.0850   -2.1690 ho        1 MOL      0.401356
    186 H91        -0.4790   -3.4650   -3.1060 ho        1 MOL      0.401356
    187 O26        -0.3120    0.0800   -3.5690 oh        1 MOL     -0.910240
    188 H92        -0.9750    0.6780   -3.9200 ho        1 MOL      0.401356
    189 H93         0.4370    0.1740   -4.1520 ho        1 MOL      0.401356
@<TRIPOS>BOND
     1    1    2 1   
     2    1    4 1   
     3    1    5 1   
     4    1    6 1   
     5    2    3 2   
     6    2    7 1   
     7    7    8 1   
     8    7   15 1   
     9    8    9 1   
    10    8   11 1   
    11    8   16 1   
    12    9   10 2   
    13    9   19 1   
    14   11   12 1   
    15   11   17 1   
    16   11   18 1   
    17   12   13 1   
    18   12   14 1   
    19   19   20 1   
    20   19   28 1   
    21   20   21 1   
    22   20   23 1   
    23   20   29 1   
    24   21   22 2   
    25   21   41 1   
    26   23   24 1   
    27   23   30 1   
    28   23   31 1   
    29   24   25 1   
    30   24   32 1   
    31   24   33 1   
    32   25   26 1   
    33   25   34 1   
    34   25   35 1   
    35   26   27 1   
    36   26   36 1   
    37   26   37 1   
    38   27   38 1   
    39   27   39 1   
    40   27   40 1   
    41   41   42 1   
    42   41   49 1   
    43   42   43 1   
    44   42   45 1   
    45   42   50 1   
    46   43   44 2   
    47   43   53 1   
    48   45   46 1   
    49   45   51 1   
    50   45   52 1   
    51   46   47 1   
    52   46   48 1   
    53   53   54 1   
    54   53   57 1   
    55   54   55 1   
    56   54   58 1   
    57   54   59 1   
    58   55   56 2   
    59   55   60 1   
    60   60   61 1   
    61   60   68 1   
    62   61   62 1   
    63   61   64 1   
    64   61   69 1   
    65   62   63 2   
    66   62   72 1   
    67   64   65 1   
    68   64   70 1   
    69   64   71 1   
    70   65   66 1   
    71   65   67 1   
    72   72   73 1   
    73   72   76 1   
    74   73   74 1   
    75   73   77 1   
    76   73   78 1   
    77   74   75 2   
    78   74   79 1   
    79   79   80 1   
    80   79   86 1   
    81   80   81 1   
    82   80   83 1   
    83   80   87 1   
    84   81   82 2   
    85   81   93 1   
    86   83   84 1   
    87   83   85 1   
    88   83   88 1   
    89   84   90 1   
    90   84   91 1   
    91   84   92 1   
    92   85   89 1   
    93   93   94 1   
    94   93  101 1   
    95   94   95 1   
    96   94   97 1   
    97   94  102 1   
    98   95   96 2   
    99   95  112 1   
   100   97   98 1   
   101   97   99 1   
   102   97  103 1   
   103   98  100 1   
   104   98  104 1   
   105   98  105 1   
   106   99  106 1   
   107   99  107 1   
   108   99  108 1   
   109  100  109 1   
   110  100  110 1   
   111  100  111 1   
   112  112  113 1   
   113  112  119 1   
   114  113  114 1   
   115  113  116 1   
   116  113  120 1   
   117  114  115 2   
   118  114  126 1   
   119  116  117 1   
   120  116  118 1   
   121  116  121 1   
   122  117  123 1   
   123  117  124 1   
   124  117  125 1   
   125  118  122 1   
   126  126  127 1   
   127  126  133 1   
   128  127  128 1   
   129  127  130 1   
   130  127  134 1   
   131  128  129 2   
   132  128  140 1   
   133  130  131 1   
   134  130  132 1   
   135  130  135 1   
   136  131  137 1   
   137  131  138 1   
   138  131  139 1   
   139  132  136 1   
   140  140  141 1   
   141  140  149 1   
   142  141  142 1   
   143  141  144 1   
   144  141  150 1   
   145  142  143 2   
   146  142  162 1   
   147  144  145 1   
   148  144  151 1   
   149  144  152 1   
   150  145  146 1   
   151  145  153 1   
   152  145  154 1   
   153  146  147 1   
   154  146  155 1   
   155  146  156 1   
   156  147  148 1   
   157  147  157 1   
   158  147  158 1   
   159  148  159 1   
   160  148  160 1   
   161  148  161 1   
   162  162  163 1   
   163  162  171 1   
   164  163  164 1   
   165  163  166 1   
   166  163  172 1   
   167  164  165 2   
   168  164  177 1   
   169  166  167 1   
   170  166  173 1   
   171  166  174 1   
   172  167  168 1   
   173  167  175 1   
   174  167  176 1   
   175  168  169 1   
   176  168  170 1   
   177  177  178 1   
   178  177  182 1   
   179  178  179 1   
   180  178  180 1   
   181  178  181 1   
   182  184  185 1   
   183  184  186 1   
   184  187  188 1   
   185  187  189 1   
@<TRIPOS>SUBSTRUCTURE
     1 MOL         1 TEMP              0 ****  ****    0 ROOT
