@<TRIPOS>MOLECULE
MOL
  179   176     1     0     0
SMALL
resp


@<TRIPOS>ATOM
      1 C1          1.5090    3.9540    4.5300 c3        1 MOL     -0.255372
      2 C2          0.9050    3.4700    3.1390 c         1 MOL      0.570910
      3 O1          1.5580    3.4480    2.0990 o         1 MOL     -0.515391
      4 H1          1.9950    3.1140    5.0260 hc        1 MOL      0.063007
      5 H2          2.2390    4.7430    4.3540 hc        1 MOL      0.063007
      6 H3          0.7070    4.3350    5.1620 hc        1 MOL      0.063007
      7 N1         -0.3740    3.1490    3.1510 n         1 MOL     -0.602721
      8 C3         -1.2090    2.8680    1.9620 c3        1 MOL     -0.047367
      9 C4         -1.7840    4.1900    1.3440 c         1 MOL      0.640215
     10 O2         -3.0010    4.5050    1.3600 o         1 MOL     -0.512736
     11 C5         -2.3170    1.8410    2.3270 c3        1 MOL      0.179504
     12 C6         -3.1170    1.2900    1.2170 c         1 MOL      0.443225
     13 O3         -4.3090    0.9780    1.4400 o         1 MOL     -0.608065
     14 O4         -2.5590    1.1460    0.0950 o         1 MOL     -0.608065
     15 H4         -0.8080    2.9150    4.0240 hn        1 MOL      0.352909
     16 H5         -0.5440    2.4350    1.2110 h1        1 MOL      0.111298
     17 H6         -2.9350    2.1830    3.1490 hc        1 MOL     -0.026917
     18 H7         -1.8430    1.0060    2.8570 hc        1 MOL     -0.026917
     19 N2         -0.8720    4.9870    0.7890 n         1 MOL     -0.542672
     20 C7         -1.1770    6.2270    0.0860 c3        1 MOL      0.021314
     21 C8         -2.1250    6.1470   -1.1200 c         1 MOL      0.429287
     22 O5         -2.6940    7.1090   -1.6270 o         1 MOL     -0.522645
     23 C9          0.0700    7.1260   -0.1210 c3        1 MOL     -0.160128
     24 C10         0.9710    7.2830    1.1650 c3        1 MOL      0.156638
     25 C11         2.2640    8.1250    0.9320 c3        1 MOL     -0.124345
     26 C12         3.2380    8.1150    2.1350 c3        1 MOL     -0.027561
     27 N3          2.6130    8.9620    3.1950 n4        1 MOL     -0.497391
     28 H8          0.0580    4.6130    0.6500 hn        1 MOL      0.374146
     29 H9         -1.7760    6.8610    0.7370 h1        1 MOL      0.094881
     30 H10        -0.1890    8.1260   -0.4860 hc        1 MOL      0.079492
     31 H11         0.6720    6.6070   -0.8650 hc        1 MOL      0.079492
     32 H12         1.2580    6.2630    1.4240 hc        1 MOL     -0.030532
     33 H13         0.3530    7.7160    1.9390 hc        1 MOL     -0.030532
     34 H14         2.0390    9.1730    0.7290 hc        1 MOL      0.066731
     35 H15         2.7340    7.7140    0.0420 hc        1 MOL      0.066731
     36 H16         4.2600    8.4350    1.9520 hx        1 MOL      0.135787
     37 H17         3.2690    7.0590    2.3990 hx        1 MOL      0.135787
     38 H18         2.6800    9.9400    2.9420 hn        1 MOL      0.363168
     39 H19         1.6610    8.6590    3.3030 hn        1 MOL      0.363168
     40 H20         3.0680    8.8790    4.0940 hn        1 MOL      0.363168
     41 N4         -2.2310    4.9480   -1.6820 n         1 MOL     -0.279378
     42 C13        -3.2140    4.5570   -2.7340 c3        1 MOL      0.005550
     43 C14        -4.5840    4.1290   -2.1890 c         1 MOL      0.443497
     44 O6         -5.6250    4.3340   -2.8140 o         1 MOL     -0.545039
     45 C15        -2.5950    3.5250   -3.7100 c3        1 MOL     -0.143427
     46 C16        -2.2520    2.2370   -3.0830 c         1 MOL      0.808035
     47 O7         -1.0560    2.0950   -2.7990 o         1 MOL     -0.755195
     48 O8         -3.0840    1.3190   -2.8380 o         1 MOL     -0.755195
     49 H21        -1.6810    4.2030   -1.2710 hn        1 MOL      0.222877
     50 H22        -3.4410    5.3630   -3.4320 h1        1 MOL      0.104046
     51 H23        -1.6310    3.8710   -4.0820 hc        1 MOL      0.035961
     52 H24        -3.1510    3.3470   -4.6300 hc        1 MOL      0.035961
     53 N5         -4.5850    3.6530   -0.9380 n         1 MOL     -0.035272
     54 C17        -5.7480    3.3810   -0.0720 c3        1 MOL     -0.030321
     55 C18        -6.4250    1.9950   -0.4190 c         1 MOL      0.367489
     56 O9         -7.6800    1.8720   -0.2730 o         1 MOL     -0.573828
     57 H25        -3.7400    3.5390   -0.3970 hn        1 MOL      0.021776
     58 H26        -6.4490    4.2250   -0.0440 h1        1 MOL      0.084466
     59 H27        -5.4540    3.4770    0.9670 h1        1 MOL      0.084466
     60 N6         -5.7240    0.9460   -0.8690 n         1 MOL      0.129756
     61 C19        -6.2860   -0.3620   -1.3390 c3        1 MOL     -0.116266
     62 C20        -6.4040   -1.4450   -0.2230 c         1 MOL      0.253567
     63 O10        -6.9370   -2.5100   -0.5170 o         1 MOL     -0.434663
     64 C21        -5.5590   -0.9510   -2.5590 c3        1 MOL     -0.115037
     65 C22        -4.4890   -1.9630   -2.1940 c         1 MOL      0.262872
     66 N7         -4.5380   -3.1670   -2.7030 n         1 MOL     -0.480960
     67 O11        -3.5950   -1.5930   -1.4260 o         1 MOL     -0.353972
     68 H28        -4.7260    1.0890   -0.8040 hn        1 MOL     -0.195224
     69 H29        -7.2830   -0.1140   -1.6950 h1        1 MOL      0.141129
     70 H30        -5.1480   -0.1150   -3.1220 hc        1 MOL      0.080811
     71 H31        -6.2080   -1.5230   -3.2270 hc        1 MOL      0.080811
     72 H32        -5.2110   -3.3290   -3.4440 hn        1 MOL      0.301271
     73 H33        -3.6780   -3.6930   -2.6960 hn        1 MOL      0.301271
     74 N8         -5.9250   -1.1870    0.9760 n         1 MOL     -0.038322
     75 C23        -5.9040   -2.0340    2.1160 c3        1 MOL     -0.385275
     76 C24        -4.5720   -2.8700    2.3380 c         1 MOL      0.658983
     77 O12        -4.3960   -3.7070    3.2240 o         1 MOL     -0.552358
     78 H34        -5.3610   -0.3490    1.0780 hn        1 MOL      0.215394
     79 H35        -6.7680   -2.6910    2.0840 h1        1 MOL      0.153218
     80 H36        -5.9450   -1.4660    3.0440 h1        1 MOL      0.153218
     81 N9         -3.6020   -2.6130    1.4050 n         1 MOL     -0.685477
     82 C25        -2.4620   -3.4700    1.3540 c3        1 MOL      0.439475
     83 C26        -1.1800   -2.6730    1.0130 c         1 MOL      0.305810
     84 O13        -1.2410   -1.6460    0.3370 o         1 MOL     -0.603069
     85 C27        -2.6520   -4.7480    0.4480 c3        1 MOL      0.015732
     86 C28        -3.8620   -5.6230    0.6590 ca        1 MOL      0.009449
     87 C29        -5.1920   -5.2340    0.2610 ca        1 MOL     -0.178479
     88 C30        -3.7110   -6.7930    1.3720 ca        1 MOL     -0.178479
     89 C31        -6.3550   -6.0360    0.4960 ca        1 MOL     -0.231329
     90 C32        -4.8410   -7.6230    1.6310 ca        1 MOL     -0.231329
     91 C33        -6.1620   -7.2630    1.1500 ca        1 MOL      0.319898
     92 O14        -7.1860   -8.0770    1.4170 oh        1 MOL     -0.443037
     93 H37        -3.7240   -1.9160    0.6890 hn        1 MOL      0.536246
     94 H38        -2.2880   -3.7650    2.3940 h1        1 MOL     -0.016792
     95 H39        -1.7790   -5.3740    0.6190 hc        1 MOL     -0.028534
     96 H40        -2.7110   -4.3920   -0.5880 hc        1 MOL     -0.028534
     97 H41        -5.1980   -4.2710   -0.2210 ha        1 MOL      0.114028
     98 H42        -2.6970   -7.0480    1.6410 ha        1 MOL      0.114028
     99 H43        -7.2620   -5.7260    0.0030 ha        1 MOL      0.136773
    100 H44        -4.7790   -8.5710    2.1410 ha        1 MOL      0.136773
    101 H45        -6.8830   -8.8020    1.9800 ho        1 MOL      0.333086
    102 N10        -0.0370   -3.0250    1.6260 n         1 MOL     -0.395517
    103 C34         1.3520   -2.4000    1.4170 c3        1 MOL     -0.025715
    104 C35         2.4120   -3.3740    1.1260 c         1 MOL      0.335769
    105 O15         2.5230   -4.4530    1.7560 o         1 MOL     -0.538804
    106 C36         1.8120   -1.4520    2.5390 c3        1 MOL      0.314349
    107 C37         1.9880   -2.0770    3.9740 c3        1 MOL     -0.056914
    108 C38         0.8340   -0.2510    2.4680 c3        1 MOL     -0.190124
    109 C39         2.0860   -1.0130    5.0710 c3        1 MOL     -0.194124
    110 H46        -0.1890   -3.7570    2.3060 hn        1 MOL      0.275894
    111 H47         1.3560   -1.8050    0.5030 h1        1 MOL      0.182419
    112 H48         2.7840   -1.0300    2.2910 hc        1 MOL     -0.099179
    113 H49         2.9020   -2.6770    3.9130 hc        1 MOL      0.030028
    114 H50         1.1030   -2.6990    4.0980 hc        1 MOL      0.030028
    115 H51         0.5740    0.0400    1.4570 hc        1 MOL      0.058748
    116 H52        -0.0700   -0.5620    2.9900 hc        1 MOL      0.058748
    117 H53         1.1450    0.6330    3.0290 hc        1 MOL      0.058748
    118 H54         2.9610   -0.4140    4.8140 hc        1 MOL      0.053213
    119 H55         1.1120   -0.5360    5.1330 hc        1 MOL      0.053213
    120 H56         2.2660   -1.4430    6.0570 hc        1 MOL      0.053213
    121 N11         3.2590   -3.0430    0.1320 n         1 MOL     -0.038070
    122 C40         4.3240   -3.8380   -0.4810 c3        1 MOL      0.152880
    123 C41         5.7110   -3.3950    0.0460 c         1 MOL      0.329579
    124 O16         5.9440   -2.4510    0.7990 o         1 MOL     -0.410120
    125 C42         4.1760   -3.6700   -1.9680 c3        1 MOL     -0.381137
    126 O17         4.7150   -2.3870   -2.3050 oh        1 MOL     -0.236883
    127 H57         3.1590   -2.1120   -0.2550 hn        1 MOL     -0.035515
    128 H58         4.1830   -4.8730   -0.1710 h1        1 MOL      0.064184
    129 H59         3.1210   -3.5980   -2.2360 h1        1 MOL      0.143339
    130 H60         4.8160   -4.4030   -2.4720 h1        1 MOL      0.143339
    131 H61         4.8540   -2.3470   -3.2500 ho        1 MOL      0.352853
    132 N12         6.7000   -4.1640   -0.2790 n         1 MOL     -0.300944
    133 C43         8.1130   -3.9020   -0.0330 c3        1 MOL      0.213868
    134 C44         8.6510   -2.6780   -0.7120 c         1 MOL      0.333140
    135 O18         9.5180   -1.9430   -0.1380 o         1 MOL     -0.524805
    136 C45         8.8970   -5.1850   -0.3080 c3        1 MOL     -0.384567
    137 H62         6.4220   -5.0450   -0.6890 hn        1 MOL      0.239253
    138 H63         8.1650   -3.7520    1.0500 h1        1 MOL      0.074390
    139 H64         9.9370   -4.9670   -0.0700 hc        1 MOL      0.113492
    140 H65         8.5020   -5.8790    0.4300 hc        1 MOL      0.113492
    141 H66         8.6670   -5.4200   -1.3480 hc        1 MOL      0.113492
    142 N13         8.1130   -2.2780   -1.8490 n         1 MOL     -0.161420
    143 C46         8.3980   -0.9360   -2.3620 c3        1 MOL      0.067247
    144 C47         7.5280    0.2800   -1.8300 c         1 MOL      0.410108
    145 O19         7.9620    1.4290   -1.8230 o         1 MOL     -0.522814
    146 C48         8.1990   -1.0170   -3.8530 c3        1 MOL     -0.248100
    147 H67         7.5380   -2.9700   -2.2970 hn        1 MOL      0.178943
    148 H68         9.4430   -0.7170   -2.1690 h1        1 MOL      0.111112
    149 H69         8.4380   -0.0430   -4.2810 hc        1 MOL      0.060640
    150 H70         8.8830   -1.7880   -4.2150 hc        1 MOL      0.060640
    151 H71         7.1600   -1.1940   -4.1060 hc        1 MOL      0.060640
    152 N14         6.3180   -0.0010   -1.3290 n         1 MOL      0.038141
    153 C49         5.4660    0.9680   -0.6470 c3        1 MOL     -0.055216
    154 C50         5.9760    1.3180    0.7350 c         1 MOL      0.488482
    155 O20         6.0330    2.5190    1.0490 o         1 MOL     -0.554957
    156 C51         4.0010    0.4630   -0.5790 c3        1 MOL      0.068469
    157 C52         3.1790    0.5960   -1.9260 c3        1 MOL     -0.140208
    158 C53         1.7280    0.1880   -1.6930 c         1 MOL      0.779517
    159 O21         0.9730    0.8500   -0.9390 o         1 MOL     -0.751687
    160 O22         1.2550   -0.7850   -2.3050 o         1 MOL     -0.751687
    161 H72         6.1190   -0.9850   -1.2860 hn        1 MOL     -0.192737
    162 H73         5.5290    1.8670   -1.2520 h1        1 MOL      0.082570
    163 H74         3.3970    1.0310    0.1320 hc        1 MOL      0.023832
    164 H75         4.0230   -0.5490   -0.1690 hc        1 MOL      0.023832
    165 H76         3.6320   -0.0070   -2.7230 hc        1 MOL      0.003726
    166 H77         3.1640    1.6590   -2.1340 hc        1 MOL      0.003726
    167 N15         6.3790    0.3180    1.5300 n         1 MOL     -0.203012
    168 C54         7.2250    0.5860    2.7330 c3        1 MOL     -0.378428
    169 H78         7.5130   -0.3600    3.1920 h1        1 MOL      0.141739
    170 H79         8.1210    1.1310    2.4340 h1        1 MOL      0.141739
    171 H80         6.6600    1.1800    3.4510 h1        1 MOL      0.141739
    172 H81         6.3380   -0.6390    1.2250 hn        1 MOL      0.237636
    173 Ca1        -1.3380   -0.3000   -1.7930 Ca        1 MOL      1.706893
    174 O23        -1.0800   -2.8650   -2.8360 oh        1 MOL     -0.815100
    175 H82        -0.6670   -3.5810   -2.3600 ho        1 MOL      0.402349
    176 H83        -1.1250   -3.1630   -3.7420 ho        1 MOL      0.402349
    177 O24        -0.7240   -0.4470   -4.5360 oh        1 MOL     -0.815100
    178 H84        -0.8480    0.1880   -5.2470 ho        1 MOL      0.402349
    179 H85         0.0120   -0.9790   -4.8310 ho        1 MOL      0.402349
@<TRIPOS>BOND
     1    1    2 1   
     2    1    4 1   
     3    1    5 1   
     4    1    6 1   
     5    2    3 2   
     6    2    7 1   
     7    7    8 1   
     8    7   15 1   
     9    8    9 1   
    10    8   11 1   
    11    8   16 1   
    12    9   10 2   
    13    9   19 1   
    14   11   12 1   
    15   11   17 1   
    16   11   18 1   
    17   12   13 1   
    18   12   14 1   
    19   19   20 1   
    20   19   28 1   
    21   20   21 1   
    22   20   23 1   
    23   20   29 1   
    24   21   22 2   
    25   21   41 1   
    26   23   24 1   
    27   23   30 1   
    28   23   31 1   
    29   24   25 1   
    30   24   32 1   
    31   24   33 1   
    32   25   26 1   
    33   25   34 1   
    34   25   35 1   
    35   26   27 1   
    36   26   36 1   
    37   26   37 1   
    38   27   38 1   
    39   27   39 1   
    40   27   40 1   
    41   41   42 1   
    42   41   49 1   
    43   42   43 1   
    44   42   45 1   
    45   42   50 1   
    46   43   44 2   
    47   43   53 1   
    48   45   46 1   
    49   45   51 1   
    50   45   52 1   
    51   46   47 1   
    52   46   48 1   
    53   53   54 1   
    54   53   57 1   
    55   54   55 1   
    56   54   58 1   
    57   54   59 1   
    58   55   56 2   
    59   55   60 1   
    60   60   61 1   
    61   60   68 1   
    62   61   62 1   
    63   61   64 1   
    64   61   69 1   
    65   62   63 2   
    66   62   74 1   
    67   64   65 1   
    68   64   70 1   
    69   64   71 1   
    70   65   66 1   
    71   65   67 2   
    72   66   72 1   
    73   66   73 1   
    74   74   75 1   
    75   74   78 1   
    76   75   76 1   
    77   75   79 1   
    78   75   80 1   
    79   76   77 2   
    80   76   81 1   
    81   81   82 1   
    82   81   93 1   
    83   82   83 1   
    84   82   85 1   
    85   82   94 1   
    86   83   84 2   
    87   83  102 1   
    88   85   86 1   
    89   85   95 1   
    90   85   96 1   
    91   86   87 ar  
    92   86   88 ar  
    93   87   89 ar  
    94   87   97 1   
    95   88   90 ar  
    96   88   98 1   
    97   89   91 ar  
    98   89   99 1   
    99   90   91 ar  
   100   90  100 1   
   101   91   92 1   
   102   92  101 1   
   103  102  103 1   
   104  102  110 1   
   105  103  104 1   
   106  103  106 1   
   107  103  111 1   
   108  104  105 2   
   109  104  121 1   
   110  106  107 1   
   111  106  108 1   
   112  106  112 1   
   113  107  109 1   
   114  107  113 1   
   115  107  114 1   
   116  108  115 1   
   117  108  116 1   
   118  108  117 1   
   119  109  118 1   
   120  109  119 1   
   121  109  120 1   
   122  121  122 1   
   123  121  127 1   
   124  122  123 1   
   125  122  125 1   
   126  122  128 1   
   127  123  124 2   
   128  123  132 1   
   129  125  126 1   
   130  125  129 1   
   131  125  130 1   
   132  126  131 1   
   133  132  133 1   
   134  132  137 1   
   135  133  134 1   
   136  133  136 1   
   137  133  138 1   
   138  134  135 2   
   139  134  142 1   
   140  136  139 1   
   141  136  140 1   
   142  136  141 1   
   143  142  143 1   
   144  142  147 1   
   145  143  144 1   
   146  143  146 1   
   147  143  148 1   
   148  144  145 2   
   149  144  152 1   
   150  146  149 1   
   151  146  150 1   
   152  146  151 1   
   153  152  153 1   
   154  152  161 1   
   155  153  154 1   
   156  153  156 1   
   157  153  162 1   
   158  154  155 2   
   159  154  167 1   
   160  156  157 1   
   161  156  163 1   
   162  156  164 1   
   163  157  158 1   
   164  157  165 1   
   165  157  166 1   
   166  158  159 1   
   167  158  160 1   
   168  167  168 1   
   169  167  172 1   
   170  168  169 1   
   171  168  170 1   
   172  168  171 1   
   173  174  175 1   
   174  174  176 1   
   175  177  178 1   
   176  177  179 1   
@<TRIPOS>SUBSTRUCTURE
     1 MOL         1 TEMP              0 ****  ****    0 ROOT
