@<TRIPOS>MOLECULE
MOL
  175   173     1     0     0
SMALL
resp


@<TRIPOS>ATOM
      1 C1          0.0730    4.4890    5.6090 c3        1 MOL     -0.399783
      2 C2         -0.6640    4.4050    4.2650 c         1 MOL      0.752777
      3 O1         -0.0340    4.7910    3.3260 o         1 MOL     -0.570539
      4 H1          0.9340    3.8200    5.5930 hc        1 MOL      0.093390
      5 H2          0.4120    5.5120    5.7740 hc        1 MOL      0.093390
      6 H3         -0.6000    4.1950    6.4130 hc        1 MOL      0.093390
      7 N1         -1.8770    3.8780    4.0740 n         1 MOL     -0.699391
      8 C3         -2.4260    3.5120    2.7760 c3        1 MOL      0.367739
      9 C4         -2.5850    4.6490    1.8270 c         1 MOL      0.440667
     10 O2         -3.0920    5.6870    2.2010 o         1 MOL     -0.557836
     11 C5         -3.6490    2.6640    2.9290 c3        1 MOL     -0.288442
     12 C6         -4.2450    2.3650    1.5470 c         1 MOL      0.587624
     13 O3         -3.5120    1.6800    0.7940 o         1 MOL     -0.605312
     14 O4         -5.3530    2.9200    1.2900 o         1 MOL     -0.605312
     15 H4         -2.3920    3.5660    4.8860 hn        1 MOL      0.321942
     16 H5         -1.6940    2.8600    2.2990 h1        1 MOL     -0.006551
     17 H6         -4.3430    3.2950    3.5010 hc        1 MOL      0.032316
     18 H7         -3.3430    1.7720    3.4730 hc        1 MOL      0.032316
     19 N2         -2.3190    4.4580    0.4960 n         1 MOL     -0.278016
     20 C7         -2.4380    5.4630   -0.5280 c3        1 MOL      0.324579
     21 C8         -3.2910    5.0280   -1.7660 c         1 MOL      0.545996
     22 O5         -3.2880    5.7280   -2.7580 o         1 MOL     -0.573914
     23 C9         -1.0070    5.8230   -0.8720 c3        1 MOL     -0.345660
     24 H8         -1.9370    3.5420    0.3030 hn        1 MOL      0.239033
     25 H9         -2.9520    6.3310   -0.1320 h1        1 MOL     -0.000238
     26 H10        -0.3730    5.6470   -0.0060 hc        1 MOL      0.073609
     27 H11        -0.6220    5.1710   -1.6630 hc        1 MOL      0.073609
     28 H12        -0.9600    6.8750   -1.1550 hc        1 MOL      0.073609
     29 N3         -4.1620    3.9540   -1.6930 n         1 MOL     -0.543957
     30 C10        -4.8790    3.3440   -2.8630 c3        1 MOL      0.275338
     31 C11        -6.1420    2.5640   -2.5210 c         1 MOL      0.367451
     32 O6         -6.9700    2.4400   -3.3920 o         1 MOL     -0.578429
     33 C12        -3.9470    2.4490   -3.7240 c3        1 MOL     -0.211960
     34 C13        -3.2180    1.3860   -2.8230 c         1 MOL      0.749499
     35 O7         -3.7880    0.6310   -1.9720 o         1 MOL     -0.736591
     36 O8         -1.9570    1.2160   -2.8430 o         1 MOL     -0.736591
     37 H13        -4.1580    3.4140   -0.8360 hn        1 MOL      0.163735
     38 H14        -5.2020    4.1420   -3.5220 h1        1 MOL      0.035555
     39 H15        -3.1540    3.0420   -4.1640 hc        1 MOL      0.055321
     40 H16        -4.4960    1.9400   -4.5140 hc        1 MOL      0.055321
     41 N4         -6.2870    2.0640   -1.3330 n         1 MOL     -0.081912
     42 C14        -7.4880    1.4250   -0.8190 c3        1 MOL     -0.158239
     43 C15        -7.4690   -0.1390   -1.0710 c         1 MOL      0.448015
     44 O9         -8.4490   -0.8470   -0.8160 o         1 MOL     -0.618026
     45 H17        -5.6110    2.1510   -0.5870 hn        1 MOL      0.133652
     46 H18        -8.3950    1.8660   -1.2390 h1        1 MOL      0.101827
     47 H19        -7.5970    1.6030    0.2510 h1        1 MOL      0.101827
     48 N5         -6.3940   -0.7390   -1.5440 n         1 MOL     -0.095684
     49 C16        -6.3180   -2.1340   -1.9720 c3        1 MOL      0.060920
     50 C17        -6.3120   -3.2090   -0.8520 c         1 MOL      0.478649
     51 O10        -6.3460   -4.3940   -1.2020 o         1 MOL     -0.516273
     52 C18        -5.2150   -2.2270   -3.0300 c3        1 MOL     -0.337827
     53 C19        -3.7710   -2.2270   -2.5930 c         1 MOL      0.800887
     54 N6         -2.7410   -2.2890   -3.3920 n         1 MOL     -0.642167
     55 O11        -3.5080   -2.1830   -1.4220 o         1 MOL     -0.699534
     56 H20        -5.5120   -0.2360   -1.5760 hn        1 MOL      0.067631
     57 H21        -7.2900   -2.3360   -2.4210 h1        1 MOL      0.088928
     58 H22        -5.3710   -1.4120   -3.7440 hc        1 MOL      0.085264
     59 H23        -5.3150   -3.2050   -3.4870 hc        1 MOL      0.085264
     60 H24        -2.9360   -2.3810   -4.3820 hn        1 MOL      0.304996
     61 H25        -1.7900   -2.3480   -3.0670 hn        1 MOL      0.304996
     62 N7         -6.3920   -2.8210    0.4450 n         1 MOL     -0.375879
     63 C20        -6.2640   -3.9080    1.4620 c3        1 MOL     -0.037705
     64 C21        -4.8920   -4.5810    1.8200 c         1 MOL      0.384765
     65 O12        -4.7720   -5.5420    2.6200 o         1 MOL     -0.548037
     66 H26        -6.5710   -1.8400    0.6160 hn        1 MOL      0.308044
     67 H27        -6.9570   -4.7290    1.2940 h1        1 MOL      0.076802
     68 H28        -6.6890   -3.4700    2.3660 h1        1 MOL      0.076802
     69 N8         -3.8520   -3.9800    1.2420 n         1 MOL     -0.044201
     70 C22        -2.4240   -4.5210    1.2630 c3        1 MOL     -0.135480
     71 C23        -1.2940   -3.4860    1.2790 c         1 MOL      0.417352
     72 O13        -1.5110   -2.3720    0.8290 o         1 MOL     -0.376693
     73 C24        -2.1470   -5.4680    0.0930 c3        1 MOL      0.559109
     74 C25        -2.8840   -6.8020    0.2360 c3        1 MOL     -0.359823
     75 O14        -2.4760   -4.9760   -1.1590 oh        1 MOL     -0.645851
     76 H29        -3.9540   -3.1110    0.7510 hn        1 MOL      0.023312
     77 H30        -2.3620   -5.0880    2.1900 h1        1 MOL      0.074882
     78 H31        -1.0990   -5.7730    0.1640 h1        1 MOL     -0.039170
     79 H32        -2.8760   -4.1020   -1.0690 ho        1 MOL      0.391657
     80 H33        -2.5470   -7.5140   -0.5260 hc        1 MOL      0.074561
     81 H34        -2.6570   -7.2930    1.1820 hc        1 MOL      0.074561
     82 H35        -3.9490   -6.6000    0.1030 hc        1 MOL      0.074561
     83 N9         -0.1830   -3.8250    1.9210 n         1 MOL     -0.475183
     84 C26         1.0460   -2.9900    1.8750 c3        1 MOL      0.056447
     85 C27         1.7890   -3.1210    0.5270 c         1 MOL      0.385334
     86 O15         2.0500   -4.2470   -0.0180 o         1 MOL     -0.560928
     87 C28         1.9540   -3.1720    3.0690 c3        1 MOL      0.315852
     88 C29         1.1770   -3.4680    4.4170 c3        1 MOL     -0.047150
     89 C30         2.9280   -2.0160    3.3310 c3        1 MOL     -0.200102
     90 C31         1.9920   -3.6790    5.7170 c3        1 MOL     -0.110080
     91 H36        -0.0380   -4.8010    2.1260 hn        1 MOL      0.283252
     92 H37         0.7030   -1.9580    1.8320 h1        1 MOL      0.043397
     93 H38         2.5930   -4.0280    2.8480 hc        1 MOL     -0.072857
     94 H39         0.6050   -4.3680    4.2180 hc        1 MOL      0.002794
     95 H40         0.4810   -2.6310    4.5340 hc        1 MOL      0.002794
     96 H41         3.6100   -2.3180    4.1230 hc        1 MOL      0.034007
     97 H42         3.4710   -1.8950    2.3980 hc        1 MOL      0.034007
     98 H43         2.4080   -1.1300    3.6810 hc        1 MOL      0.034007
     99 H44         2.6700   -4.5310    5.7130 hc        1 MOL      0.024861
    100 H45         2.6490   -2.8120    5.8280 hc        1 MOL      0.024861
    101 H46         1.3890   -3.8130    6.6170 hc        1 MOL      0.024861
    102 N10         2.0970   -1.9710   -0.0790 n         1 MOL     -0.125807
    103 C32         2.8730   -1.8700   -1.3380 c3        1 MOL      0.263352
    104 C33         4.2750   -1.3260   -1.0090 c         1 MOL      0.177595
    105 O16         4.4250   -0.6680    0.0360 o         1 MOL     -0.216150
    106 C34         2.0600   -1.0370   -2.3310 c3        1 MOL     -0.324606
    107 C35         0.6420   -1.5350   -2.6800 c         1 MOL      0.727361
    108 O17        -0.2140   -1.3720   -1.8010 o         1 MOL     -0.672634
    109 O18         0.4730   -2.1150   -3.7930 o         1 MOL     -0.672634
    110 H47         1.9250   -1.1020    0.4000 hn        1 MOL     -0.044793
    111 H48         3.0820   -2.8580   -1.7600 h1        1 MOL      0.035089
    112 H49         2.7090   -0.9240   -3.1960 hc        1 MOL      0.079139
    113 H50         1.8570   -0.0270   -1.9720 hc        1 MOL      0.079139
    114 N11         5.2470   -1.5710   -1.7960 n         1 MOL     -0.414244
    115 C36         6.6410   -1.1830   -1.5200 c3        1 MOL      0.276665
    116 C37         6.8890    0.2510   -1.2160 c         1 MOL      0.398911
    117 O19         7.5900    0.4680   -0.2530 o         1 MOL     -0.483946
    118 C38         7.4770   -1.6800   -2.6890 c3        1 MOL     -0.298207
    119 C39         8.9700   -1.6050   -2.2720 ca        1 MOL      0.151114
    120 C40         9.5070   -2.6720   -1.4600 ca        1 MOL     -0.221494
    121 C41         9.7680   -0.5360   -2.6540 ca        1 MOL     -0.221494
    122 C42        10.7170   -2.4870   -0.8050 ca        1 MOL     -0.079467
    123 C43        11.0890   -0.4610   -2.1540 ca        1 MOL     -0.079467
    124 C44        11.5210   -1.3960   -1.1670 ca        1 MOL     -0.122776
    125 H51         5.0540   -2.0450   -2.6700 hn        1 MOL      0.297157
    126 H52         6.9870   -1.7570   -0.6580 h1        1 MOL      0.061760
    127 H53         7.4840   -1.0600   -3.5860 hc        1 MOL      0.086342
    128 H54         7.1940   -2.7080   -2.9150 hc        1 MOL      0.086342
    129 H55         8.9920   -3.5770   -1.1870 ha        1 MOL      0.141443
    130 H56         9.3520    0.2320   -3.2910 ha        1 MOL      0.141443
    131 H57        11.1290   -3.2940   -0.2050 ha        1 MOL      0.106567
    132 H58        11.7530    0.3500   -2.4070 ha        1 MOL      0.106567
    133 H59        12.5290   -1.3240   -0.7750 ha        1 MOL      0.096468
    134 N12         6.1600    1.2270   -1.8750 n         1 MOL     -0.159882
    135 C45         6.1410    2.6630   -1.3550 c3        1 MOL     -0.004680
    136 C46         5.5460    2.9470    0.0170 c         1 MOL      0.315589
    137 O20         5.8950    3.9950    0.5370 o         1 MOL     -0.505939
    138 C47         5.4990    3.4600   -2.5090 c3        1 MOL      0.008841
    139 C48         5.5980    2.5370   -3.7470 c3        1 MOL      0.010293
    140 C49         5.5460    1.1700   -3.1090 c3        1 MOL      0.029502
    141 H60         7.1980    2.9120   -1.2980 h1        1 MOL      0.080345
    142 H61         4.4640    3.7850   -2.3410 hc        1 MOL      0.028440
    143 H62         6.0150    4.4110   -2.5900 hc        1 MOL      0.028440
    144 H63         4.8180    2.7040   -4.4910 hc        1 MOL      0.002016
    145 H64         6.5770    2.7210   -4.1880 hc        1 MOL      0.002016
    146 H65         4.4760    0.9590   -3.0910 h1        1 MOL      0.017741
    147 H66         5.9400    0.4770   -3.8490 h1        1 MOL      0.017741
    148 N13         4.7300    2.0440    0.5790 n         1 MOL     -0.151254
    149 C50         4.0570    2.1970    1.9310 c3        1 MOL     -0.010647
    150 C51         4.8440    1.4670    2.9540 c         1 MOL      0.461492
    151 O21         5.0190    1.9150    4.0670 o         1 MOL     -0.556465
    152 C52         2.6900    1.6140    1.6370 c3        1 MOL     -0.017553
    153 C53         1.7850    2.2830    0.6240 c3        1 MOL     -0.019963
    154 C54         0.4520    1.5930    0.5200 c         1 MOL      0.628266
    155 O22        -0.5110    2.0750   -0.1270 o         1 MOL     -0.721122
    156 O23         0.1520    0.5730    1.2140 o         1 MOL     -0.721122
    157 H67         4.5270    1.1860    0.0900 hn        1 MOL      0.098268
    158 H68         4.0010    3.2320    2.2590 h1        1 MOL      0.094488
    159 H69         2.2130    1.5110    2.6150 hc        1 MOL      0.038288
    160 H70         2.7830    0.5840    1.2860 hc        1 MOL      0.038288
    161 H71         2.2400    2.1710   -0.3600 hc        1 MOL      0.043012
    162 H72         1.5860    3.3320    0.8630 hc        1 MOL      0.043012
    163 N14         5.5150    0.3660    2.5890 n         1 MOL     -0.059092
    164 C55         6.5160   -0.2810    3.4240 c3        1 MOL     -0.206322
    165 H73         6.9480   -1.1240    2.8860 h1        1 MOL      0.077524
    166 H74         7.3020    0.4330    3.6700 h1        1 MOL      0.077524
    167 H75         6.0490   -0.6370    4.3420 h1        1 MOL      0.077524
    168 H76         5.3280   -0.0600    1.6990 hn        1 MOL      0.052356
    169 Ca1        -2.0180   -0.1190   -0.2790 Ca        1 MOL      1.762829
    170 O24        -4.0500   -0.8640    1.9680 oh        1 MOL     -0.800517
    171 H77        -4.8620   -0.5370    2.3570 ho        1 MOL      0.392470
    172 H78        -3.3600   -0.4060    2.4470 ho        1 MOL      0.392470
    173 O25        -1.6490   -0.1910    2.9810 oh        1 MOL     -0.800517
    174 H79        -0.8260    0.0870    2.5710 ho        1 MOL      0.392470
    175 H80        -1.6110    0.1860    3.8620 ho        1 MOL      0.392470
@<TRIPOS>BOND
     1    1    2 1   
     2    1    4 1   
     3    1    5 1   
     4    1    6 1   
     5    2    3 2   
     6    2    7 1   
     7    7    8 1   
     8    7   15 1   
     9    8    9 1   
    10    8   11 1   
    11    8   16 1   
    12    9   10 2   
    13    9   19 1   
    14   11   12 1   
    15   11   17 1   
    16   11   18 1   
    17   12   13 1   
    18   12   14 1   
    19   19   20 1   
    20   19   24 1   
    21   20   21 1   
    22   20   23 1   
    23   20   25 1   
    24   21   22 2   
    25   21   29 1   
    26   23   26 1   
    27   23   27 1   
    28   23   28 1   
    29   29   30 1   
    30   29   37 1   
    31   30   31 1   
    32   30   33 1   
    33   30   38 1   
    34   31   32 2   
    35   31   41 1   
    36   33   34 1   
    37   33   39 1   
    38   33   40 1   
    39   34   35 1   
    40   34   36 1   
    41   41   42 1   
    42   41   45 1   
    43   42   43 1   
    44   42   46 1   
    45   42   47 1   
    46   43   44 2   
    47   43   48 1   
    48   48   49 1   
    49   48   56 1   
    50   49   50 1   
    51   49   52 1   
    52   49   57 1   
    53   50   51 2   
    54   50   62 1   
    55   52   53 1   
    56   52   58 1   
    57   52   59 1   
    58   53   54 1   
    59   53   55 2   
    60   54   60 1   
    61   54   61 1   
    62   62   63 1   
    63   62   66 1   
    64   63   64 1   
    65   63   67 1   
    66   63   68 1   
    67   64   65 2   
    68   64   69 1   
    69   69   70 1   
    70   69   76 1   
    71   70   71 1   
    72   70   73 1   
    73   70   77 1   
    74   71   72 2   
    75   71   83 1   
    76   73   74 1   
    77   73   75 1   
    78   73   78 1   
    79   74   80 1   
    80   74   81 1   
    81   74   82 1   
    82   75   79 1   
    83   83   84 1   
    84   83   91 1   
    85   84   85 1   
    86   84   87 1   
    87   84   92 1   
    88   85   86 2   
    89   85  102 1   
    90   87   88 1   
    91   87   89 1   
    92   87   93 1   
    93   88   90 1   
    94   88   94 1   
    95   88   95 1   
    96   89   96 1   
    97   89   97 1   
    98   89   98 1   
    99   90   99 1   
   100   90  100 1   
   101   90  101 1   
   102  102  103 1   
   103  102  110 1   
   104  103  104 1   
   105  103  106 1   
   106  103  111 1   
   107  104  105 2   
   108  104  114 1   
   109  106  107 1   
   110  106  112 1   
   111  106  113 1   
   112  107  108 1   
   113  107  109 1   
   114  114  115 1   
   115  114  125 1   
   116  115  116 1   
   117  115  118 1   
   118  115  126 1   
   119  116  117 2   
   120  116  134 1   
   121  118  119 1   
   122  118  127 1   
   123  118  128 1   
   124  119  120 ar  
   125  119  121 ar  
   126  120  122 ar  
   127  120  129 1   
   128  121  123 ar  
   129  121  130 1   
   130  122  124 ar  
   131  122  131 1   
   132  123  124 ar  
   133  123  132 1   
   134  124  133 1   
   135  134  135 1   
   136  134  140 1   
   137  135  136 1   
   138  135  138 1   
   139  135  141 1   
   140  136  137 2   
   141  136  148 1   
   142  138  139 1   
   143  138  142 1   
   144  138  143 1   
   145  139  140 1   
   146  139  144 1   
   147  139  145 1   
   148  140  146 1   
   149  140  147 1   
   150  148  149 1   
   151  148  157 1   
   152  149  150 1   
   153  149  152 1   
   154  149  158 1   
   155  150  151 2   
   156  150  163 1   
   157  152  153 1   
   158  152  159 1   
   159  152  160 1   
   160  153  154 1   
   161  153  161 1   
   162  153  162 1   
   163  154  155 1   
   164  154  156 1   
   165  163  164 1   
   166  163  168 1   
   167  164  165 1   
   168  164  166 1   
   169  164  167 1   
   170  170  171 1   
   171  170  172 1   
   172  173  174 1   
   173  173  175 1   
@<TRIPOS>SUBSTRUCTURE
     1 MOL         1 TEMP              0 ****  ****    0 ROOT
