@<TRIPOS>MOLECULE
MOL
  189   185     1     0     0
SMALL
resp


@<TRIPOS>ATOM
      1 C1          0.3410    1.9910    6.2030 c3        1 MOL     -0.228247
      2 C2         -0.1090    1.7290    4.7490 c         1 MOL      0.727901
      3 O1          0.8210    1.7950    3.8830 o         1 MOL     -0.622669
      4 H1          1.4300    2.0210    6.2460 hc        1 MOL      0.058219
      5 H2         -0.0620    2.9460    6.5420 hc        1 MOL      0.058219
      6 H3         -0.0270    1.1920    6.8480 hc        1 MOL      0.058219
      7 N1         -1.3030    1.3970    4.4460 n         1 MOL     -0.610572
      8 C3         -1.7010    1.2100    3.0380 c3        1 MOL      0.084556
      9 C4         -1.7950    2.6330    2.4160 c         1 MOL      0.653599
     10 O2         -2.5780    3.4860    2.9330 o         1 MOL     -0.610475
     11 C5         -3.1440    0.5990    2.9670 c3        1 MOL     -0.174440
     12 C6         -3.6770    0.3770    1.5380 c         1 MOL      0.770068
     13 O3         -4.7080   -0.3110    1.3020 o         1 MOL     -0.627093
     14 O4         -2.9930    0.8700    0.6170 o         1 MOL     -0.627093
     15 H4         -1.9960    1.1530    5.1440 hn        1 MOL      0.345643
     16 H5         -0.9360    0.6290    2.5200 h1        1 MOL     -0.012791
     17 H6         -3.8680    1.2130    3.5040 hc        1 MOL      0.044627
     18 H7         -3.2390   -0.4170    3.3520 hc        1 MOL      0.044627
     19 N2         -1.0030    3.0970    1.4130 n         1 MOL     -0.386607
     20 C7         -0.9370    4.5310    0.9320 c3        1 MOL      0.367060
     21 C8         -2.0370    4.8980   -0.0040 c         1 MOL      0.388433
     22 O5         -2.2950    6.1270   -0.1340 o         1 MOL     -0.563267
     23 C9          0.5370    4.8450    0.5160 c3        1 MOL     -0.137776
     24 C10         0.7880    6.3420    0.3090 c3        1 MOL     -0.233791
     25 C11         0.4880    7.2740    1.5140 c3        1 MOL     -0.001033
     26 C12         0.8500    8.7080    1.1460 c3        1 MOL     -0.005967
     27 N3          0.2840    9.5860    2.1770 n4        1 MOL     -0.228937
     28 H8         -0.4500    2.4480    0.8690 hn        1 MOL      0.083749
     29 H9         -1.0290    5.0900    1.8670 h1        1 MOL     -0.023781
     30 H10         0.7220    4.2940   -0.4020 hc        1 MOL      0.104834
     31 H11         1.0290    4.5360    1.4400 hc        1 MOL      0.104834
     32 H12         0.1370    6.7170   -0.4810 hc        1 MOL      0.068368
     33 H13         1.7940    6.4550   -0.1110 hc        1 MOL      0.068368
     34 H14         1.0670    6.9570    2.3830 hc        1 MOL      0.043684
     35 H15        -0.5810    7.1410    1.6550 hc        1 MOL      0.043684
     36 H16         0.3940    8.9760    0.1950 hx        1 MOL      0.087588
     37 H17         1.9160    8.8660    1.0330 hx        1 MOL      0.087588
     38 H18        -0.7050    9.7530    2.0390 hn        1 MOL      0.292757
     39 H19         0.3520    9.1830    3.0990 hn        1 MOL      0.292757
     40 H20         0.7090   10.5000    2.2580 hn        1 MOL      0.292757
     41 N4         -2.7020    3.9170   -0.6450 n         1 MOL     -0.354002
     42 C13        -3.6920    4.2150   -1.6400 c3        1 MOL      0.159424
     43 C14        -5.0820    3.5880   -1.3860 c         1 MOL      0.433669
     44 O6         -6.0430    4.0900   -1.9900 o         1 MOL     -0.531407
     45 C15        -3.2680    3.9620   -3.0220 c3        1 MOL     -0.073357
     46 C16        -2.9940    2.4880   -3.3560 c         1 MOL      0.700930
     47 O7         -2.8630    2.2300   -4.5640 o         1 MOL     -0.685549
     48 O8         -2.8970    1.7280   -2.3640 o         1 MOL     -0.685549
     49 H21        -2.3050    2.9920   -0.5620 hn        1 MOL      0.238583
     50 H22        -3.9150    5.2750   -1.5800 h1        1 MOL      0.018320
     51 H23        -2.3570    4.5310   -3.1720 hc        1 MOL      0.007558
     52 H24        -4.0300    4.3880   -3.6770 hc        1 MOL      0.007558
     53 N5         -5.1870    2.6180   -0.4900 n         1 MOL     -0.070200
     54 C17        -6.4860    2.2650    0.0820 c3        1 MOL     -0.281379
     55 C18        -7.1400    1.2710   -0.8680 c         1 MOL      0.564571
     56 O9         -8.1170    1.5120   -1.5460 o         1 MOL     -0.539853
     57 H25        -4.3150    2.2030   -0.1970 hn        1 MOL      0.033991
     58 H26        -7.0990    3.1510    0.1910 h1        1 MOL      0.121059
     59 H27        -6.3780    1.7760    1.0500 h1        1 MOL      0.121059
     60 N6         -6.5410    0.0630   -0.9630 n         1 MOL     -0.197268
     61 C19        -7.1080   -1.0540   -1.6640 c3        1 MOL     -0.020244
     62 C20        -7.1490   -2.3180   -0.7630 c         1 MOL      0.376949
     63 O10        -7.9020   -3.2830   -1.1220 o         1 MOL     -0.552171
     64 C21        -6.1970   -1.4410   -2.8140 c3        1 MOL     -0.132935
     65 C22        -4.7080   -1.6000   -2.5810 c         1 MOL      0.721828
     66 O11        -3.9400   -1.2880   -3.4890 o         1 MOL     -0.704647
     67 O12        -4.2580   -2.0510   -1.4980 o         1 MOL     -0.704647
     68 H28        -5.6160    0.0030   -0.5510 hn        1 MOL      0.047054
     69 H29        -8.1120   -0.8350   -2.0180 h1        1 MOL      0.118559
     70 H30        -6.2630   -0.6410   -3.5520 hc        1 MOL      0.056094
     71 H31        -6.4920   -2.3350   -3.3600 hc        1 MOL      0.056094
     72 N7         -6.6010   -2.2350    0.4040 n         1 MOL     -0.118332
     73 C23        -6.5790   -3.1340    1.6060 c3        1 MOL     -0.101179
     74 C24        -5.3590   -4.1280    1.5620 c         1 MOL      0.500456
     75 O13        -5.5070   -5.2100    2.1270 o         1 MOL     -0.559216
     76 H32        -6.0320   -1.4020    0.5260 hn        1 MOL      0.096963
     77 H33        -7.5810   -3.5570    1.7360 h1        1 MOL      0.082114
     78 H34        -6.3770   -2.5510    2.5040 h1        1 MOL      0.082114
     79 N8         -4.3550   -3.6890    0.8250 n         1 MOL     -0.143526
     80 C25        -3.0990   -4.4450    0.6490 c3        1 MOL     -0.155159
     81 C26        -1.8450   -3.6280    0.6620 c         1 MOL      0.632407
     82 O14        -1.8320   -2.4330    0.3510 o         1 MOL     -0.672836
     83 C27        -3.2700   -5.3310   -0.5720 c3        1 MOL      0.464390
     84 C28        -4.4780   -6.2700   -0.5310 c3        1 MOL     -0.424037
     85 O15        -3.4000   -4.5020   -1.7030 oh        1 MOL     -0.702372
     86 H35        -4.3740   -2.8220    0.3140 hn        1 MOL      0.090571
     87 H36        -3.0080   -5.1640    1.4690 h1        1 MOL      0.054047
     88 H37        -2.3230   -5.8650   -0.6250 h1        1 MOL     -0.041971
     89 H38        -3.7980   -3.6570   -1.4820 ho        1 MOL      0.476371
     90 H39        -4.4300   -6.9360    0.3340 hc        1 MOL      0.116016
     91 H40        -5.3730   -5.6610   -0.6690 hc        1 MOL      0.116016
     92 H41        -4.4050   -6.9420   -1.3870 hc        1 MOL      0.116016
     93 N9         -0.7170   -4.2530    1.0260 n         1 MOL     -0.469047
     94 C29         0.5340   -3.5770    1.4840 c3        1 MOL      0.093414
     95 C30         1.6200   -3.9080    0.4260 c         1 MOL      0.347324
     96 O16         2.0650   -5.0720    0.3360 o         1 MOL     -0.553000
     97 C31         0.9080   -3.8220    2.9760 c3        1 MOL      0.143857
     98 C32        -0.2950   -3.4810    3.9080 c3        1 MOL     -0.227121
     99 C33         2.1270   -3.0350    3.3690 c3        1 MOL     -0.208689
    100 C34        -0.6990   -2.0340    3.8640 c3        1 MOL      0.009365
    101 H42        -0.7750   -5.2440    1.1940 hn        1 MOL      0.280087
    102 H43         0.3690   -2.5250    1.2720 h1        1 MOL      0.262915
    103 H44         1.1800   -4.8730    3.0300 hc        1 MOL     -0.009726
    104 H45         0.0370   -3.8030    4.8930 hc        1 MOL      0.052353
    105 H46        -1.1030   -4.0920    3.5270 hc        1 MOL      0.052353
    106 H47         2.9700   -3.5790    2.9540 hc        1 MOL      0.045588
    107 H48         2.0450   -2.0720    2.8680 hc        1 MOL      0.045588
    108 H49         2.2560   -2.8820    4.4410 hc        1 MOL      0.045588
    109 H50         0.0570   -1.3270    4.2100 hc        1 MOL      0.019785
    110 H51        -0.9030   -1.7080    2.8450 hc        1 MOL      0.019785
    111 H52        -1.5560   -1.9780    4.5340 hc        1 MOL      0.019785
    112 N10         2.1030   -3.0150   -0.3820 n         1 MOL     -0.055906
    113 C35         3.2370   -3.2320   -1.3630 c3        1 MOL     -0.002651
    114 C36         4.6260   -3.2860   -0.7020 c         1 MOL      0.302640
    115 O17         4.7460   -2.8670    0.4250 o         1 MOL     -0.257244
    116 C37         3.2880   -2.0410   -2.3720 c3        1 MOL     -0.040374
    117 C38         1.9920   -1.9330   -3.1060 c3        1 MOL     -0.317521
    118 O18         3.5560   -0.8050   -1.7580 oh        1 MOL     -0.223869
    119 H53         1.7280   -2.0840   -0.3050 hn        1 MOL      0.007096
    120 H54         3.1300   -4.1940   -1.8640 h1        1 MOL      0.104568
    121 H55         4.0350   -2.1590   -3.1580 h1        1 MOL      0.067219
    122 H56         3.5980   -0.1180   -2.4280 ho        1 MOL      0.339218
    123 H57         2.1330   -1.3460   -4.0140 hc        1 MOL      0.107062
    124 H58         1.7250   -2.9460   -3.4070 hc        1 MOL      0.107062
    125 H59         1.2310   -1.3940   -2.5390 hc        1 MOL      0.107062
    126 N11         5.7540   -3.5580   -1.4130 n         1 MOL     -0.263628
    127 C39         7.0760   -3.3500   -0.8670 c3        1 MOL     -0.245992
    128 C40         7.2760   -1.9260   -0.2910 c         1 MOL      0.421487
    129 O19         8.0410   -1.7450    0.6580 o         1 MOL     -0.501206
    130 C41         8.1440   -3.4380   -1.9380 c3        1 MOL      0.248832
    131 C42         8.1140   -4.9060   -2.3800 c3        1 MOL     -0.370813
    132 O20         7.8890   -2.7550   -3.1730 oh        1 MOL     -0.609833
    133 H60         5.6470   -3.9190   -2.3490 hn        1 MOL      0.271777
    134 H61         7.2700   -4.1400   -0.1510 h1        1 MOL      0.191828
    135 H62         9.1410   -3.1190   -1.6230 h1        1 MOL      0.081675
    136 H63         8.7090   -2.8750   -3.6630 ho        1 MOL      0.400210
    137 H64         8.5320   -5.6020   -1.6480 hc        1 MOL      0.102766
    138 H65         7.1160   -5.2190   -2.6820 hc        1 MOL      0.102766
    139 H66         8.6000   -5.1050   -3.3440 hc        1 MOL      0.102766
    140 N12         6.6090   -0.8800   -0.8600 n         1 MOL     -0.246257
    141 C43         6.8910    0.5900   -0.5620 c3        1 MOL     -0.017674
    142 C44         6.0100    1.0740    0.6010 c         1 MOL      0.322699
    143 O21         6.4920    1.7910    1.4470 o         1 MOL     -0.541350
    144 C45         6.7140    1.4180   -1.8710 c3        1 MOL      0.047411
    145 C46         6.7660    2.8840   -1.6730 c3        1 MOL     -0.148674
    146 C47         6.5490    3.5250   -3.0510 c3        1 MOL     -0.006168
    147 C48         7.0380    4.9610   -3.0750 c3        1 MOL      0.079072
    148 N13         6.9460    5.6380   -4.3850 n4        1 MOL     -0.422841
    149 H67         5.9750   -1.1070   -1.6070 hn        1 MOL      0.152078
    150 H68         7.9150    0.6930   -0.2150 h1        1 MOL      0.127155
    151 H69         5.7590    1.0750   -2.2820 hc        1 MOL      0.004013
    152 H70         7.5040    1.0760   -2.5370 hc        1 MOL      0.004013
    153 H71         7.7770    3.1300   -1.3420 hc        1 MOL      0.066414
    154 H72         5.9960    3.2820   -1.0230 hc        1 MOL      0.066414
    155 H73         5.5720    3.4000   -3.5100 hc        1 MOL      0.029833
    156 H74         7.1700    2.9310   -3.7240 hc        1 MOL      0.029833
    157 H75         8.0900    5.0890   -2.8370 hx        1 MOL      0.073486
    158 H76         6.5140    5.5540   -2.3130 hx        1 MOL      0.073486
    159 H77         7.4830    5.1560   -5.0950 hn        1 MOL      0.332376
    160 H78         5.9480    5.6190   -4.5520 hn        1 MOL      0.332376
    161 H79         7.2530    6.5890   -4.3020 hn        1 MOL      0.332376
    162 N14         4.8380    0.5910    0.7490 n         1 MOL      0.058700
    163 C49         3.9990    0.7290    1.9080 c3        1 MOL     -0.136557
    164 C50         4.6120   -0.0670    3.0840 c         1 MOL      0.505342
    165 O22         4.6990    0.4100    4.2230 o         1 MOL     -0.574962
    166 C51         2.5740    0.2470    1.4440 c3        1 MOL      0.235584
    167 C52         1.7830    1.2830    0.6030 c3        1 MOL     -0.211767
    168 C53         0.6200    0.6480   -0.2000 c         1 MOL      0.649332
    169 O23        -0.2390    1.3540   -0.7320 o         1 MOL     -0.661172
    170 O24         0.5050   -0.5900   -0.2130 o         1 MOL     -0.661172
    171 H80         4.4930   -0.0160    0.0240 hn        1 MOL     -0.011452
    172 H81         4.0020    1.7340    2.3250 h1        1 MOL      0.087122
    173 H82         1.9410    0.0920    2.3210 hc        1 MOL     -0.001051
    174 H83         2.7380   -0.7420    1.0120 hc        1 MOL     -0.001051
    175 H84         2.5010    1.7190   -0.0910 hc        1 MOL     -0.021370
    176 H85         1.3770    1.9630    1.3490 hc        1 MOL     -0.021370
    177 N15         5.0050   -1.3170    2.9210 n         1 MOL     -0.018289
    178 C54         5.8690   -2.0800    3.8790 c3        1 MOL     -0.380451
    179 H86         5.8110   -1.6210    4.8660 h1        1 MOL      0.131846
    180 H87         5.5230   -3.1120    3.9380 h1        1 MOL      0.131846
    181 H88         6.9020   -2.0620    3.5310 h1        1 MOL      0.131846
    182 H89         4.7850   -1.7920    2.0600 hn        1 MOL      0.065754
    183 Ca1        -2.0060   -0.5240   -1.4150 Ca        1 MOL      1.768903
    184 O25        -1.0510    0.1020   -4.0830 oh        1 MOL     -0.894326
    185 H90        -1.8240    0.6460   -4.2260 ho        1 MOL      0.412306
    186 H91        -0.9030   -0.3280   -4.9240 ho        1 MOL      0.412306
    187 O26        -1.3460   -2.6410   -2.7580 oh        1 MOL     -0.894326
    188 H92        -1.2620   -2.6510   -3.7050 ho        1 MOL      0.412306
    189 H93        -1.9780   -3.3270   -2.5690 ho        1 MOL      0.412306
@<TRIPOS>BOND
     1    1    2 1   
     2    1    4 1   
     3    1    5 1   
     4    1    6 1   
     5    2    3 2   
     6    2    7 1   
     7    7    8 1   
     8    7   15 1   
     9    8    9 1   
    10    8   11 1   
    11    8   16 1   
    12    9   10 2   
    13    9   19 1   
    14   11   12 1   
    15   11   17 1   
    16   11   18 1   
    17   12   13 1   
    18   12   14 1   
    19   19   20 1   
    20   19   28 1   
    21   20   21 1   
    22   20   23 1   
    23   20   29 1   
    24   21   22 2   
    25   21   41 1   
    26   23   24 1   
    27   23   30 1   
    28   23   31 1   
    29   24   25 1   
    30   24   32 1   
    31   24   33 1   
    32   25   26 1   
    33   25   34 1   
    34   25   35 1   
    35   26   27 1   
    36   26   36 1   
    37   26   37 1   
    38   27   38 1   
    39   27   39 1   
    40   27   40 1   
    41   41   42 1   
    42   41   49 1   
    43   42   43 1   
    44   42   45 1   
    45   42   50 1   
    46   43   44 2   
    47   43   53 1   
    48   45   46 1   
    49   45   51 1   
    50   45   52 1   
    51   46   47 1   
    52   46   48 1   
    53   53   54 1   
    54   53   57 1   
    55   54   55 1   
    56   54   58 1   
    57   54   59 1   
    58   55   56 2   
    59   55   60 1   
    60   60   61 1   
    61   60   68 1   
    62   61   62 1   
    63   61   64 1   
    64   61   69 1   
    65   62   63 2   
    66   62   72 1   
    67   64   65 1   
    68   64   70 1   
    69   64   71 1   
    70   65   66 1   
    71   65   67 1   
    72   72   73 1   
    73   72   76 1   
    74   73   74 1   
    75   73   77 1   
    76   73   78 1   
    77   74   75 2   
    78   74   79 1   
    79   79   80 1   
    80   79   86 1   
    81   80   81 1   
    82   80   83 1   
    83   80   87 1   
    84   81   82 2   
    85   81   93 1   
    86   83   84 1   
    87   83   85 1   
    88   83   88 1   
    89   84   90 1   
    90   84   91 1   
    91   84   92 1   
    92   85   89 1   
    93   93   94 1   
    94   93  101 1   
    95   94   95 1   
    96   94   97 1   
    97   94  102 1   
    98   95   96 2   
    99   95  112 1   
   100   97   98 1   
   101   97   99 1   
   102   97  103 1   
   103   98  100 1   
   104   98  104 1   
   105   98  105 1   
   106   99  106 1   
   107   99  107 1   
   108   99  108 1   
   109  100  109 1   
   110  100  110 1   
   111  100  111 1   
   112  112  113 1   
   113  112  119 1   
   114  113  114 1   
   115  113  116 1   
   116  113  120 1   
   117  114  115 2   
   118  114  126 1   
   119  116  117 1   
   120  116  118 1   
   121  116  121 1   
   122  117  123 1   
   123  117  124 1   
   124  117  125 1   
   125  118  122 1   
   126  126  127 1   
   127  126  133 1   
   128  127  128 1   
   129  127  130 1   
   130  127  134 1   
   131  128  129 2   
   132  128  140 1   
   133  130  131 1   
   134  130  132 1   
   135  130  135 1   
   136  131  137 1   
   137  131  138 1   
   138  131  139 1   
   139  132  136 1   
   140  140  141 1   
   141  140  149 1   
   142  141  142 1   
   143  141  144 1   
   144  141  150 1   
   145  142  143 2   
   146  142  162 1   
   147  144  145 1   
   148  144  151 1   
   149  144  152 1   
   150  145  146 1   
   151  145  153 1   
   152  145  154 1   
   153  146  147 1   
   154  146  155 1   
   155  146  156 1   
   156  147  148 1   
   157  147  157 1   
   158  147  158 1   
   159  148  159 1   
   160  148  160 1   
   161  148  161 1   
   162  162  163 1   
   163  162  171 1   
   164  163  164 1   
   165  163  166 1   
   166  163  172 1   
   167  164  165 2   
   168  164  177 1   
   169  166  167 1   
   170  166  173 1   
   171  166  174 1   
   172  167  168 1   
   173  167  175 1   
   174  167  176 1   
   175  168  169 1   
   176  168  170 1   
   177  177  178 1   
   178  177  182 1   
   179  178  179 1   
   180  178  180 1   
   181  178  181 1   
   182  184  185 1   
   183  184  186 1   
   184  187  188 1   
   185  187  189 1   
@<TRIPOS>SUBSTRUCTURE
     1 MOL         1 TEMP              0 ****  ****    0 ROOT
