@<TRIPOS>MOLECULE
MOL
  179   176     1     0     0
SMALL
resp


@<TRIPOS>ATOM
      1 C1          1.0650    4.2980    6.2370 c3        1 MOL     -0.300271
      2 C2          1.1200    3.4890    4.9120 c         1 MOL      0.750872
      3 O1          2.1700    3.2170    4.3880 o         1 MOL     -0.570597
      4 H1          0.9240    3.6150    7.0750 hc        1 MOL      0.079949
      5 H2          1.9990    4.8450    6.3690 hc        1 MOL      0.079949
      6 H3          0.2340    5.0020    6.2000 hc        1 MOL      0.079949
      7 N1         -0.0400    3.1180    4.2790 n         1 MOL     -0.710453
      8 C3         -0.0260    2.6030    2.9140 c3        1 MOL      0.013855
      9 C4         -0.0580    3.8550    2.0060 c         1 MOL      0.728805
     10 O2         -0.8060    4.8020    2.2280 o         1 MOL     -0.549369
     11 C5         -1.3030    1.7210    2.6530 c3        1 MOL     -0.005687
     12 C6         -1.3340    1.0250    1.2790 c         1 MOL      0.144462
     13 O3         -0.4700    1.3000    0.4780 o         1 MOL     -0.529995
     14 O4         -2.2180    0.2310    0.9790 o         1 MOL     -0.529995
     15 H4         -0.9580    3.2810    4.6570 hn        1 MOL      0.349526
     16 H5          0.8760    2.0350    2.6920 h1        1 MOL      0.136120
     17 H6         -2.1290    2.4110    2.7570 hc        1 MOL      0.047263
     18 H7         -1.3310    0.9720    3.4450 hc        1 MOL      0.047263
     19 N2          0.8050    3.7710    1.0060 n         1 MOL     -0.440567
     20 C7          1.1420    4.7140   -0.0640 c3        1 MOL     -0.019793
     21 C8         -0.0810    5.1320   -0.9050 c         1 MOL      0.504540
     22 O5         -0.1170    6.2790   -1.3490 o         1 MOL     -0.602118
     23 C9          2.1220    3.9840   -0.9730 c3        1 MOL      0.019120
     24 C10         2.4920    4.8120   -2.2360 c3        1 MOL     -0.108685
     25 C11         3.6670    4.3650   -3.0060 c3        1 MOL      0.115433
     26 C12         3.8900    5.3330   -4.1270 c3        1 MOL      0.138749
     27 N3          5.1790    5.2090   -4.8070 n4        1 MOL     -0.586460
     28 H8          1.1850    2.8610    0.8240 hn        1 MOL      0.182967
     29 H9          1.5090    5.6690    0.3210 h1        1 MOL      0.101665
     30 H10         1.5810    3.1100   -1.3120 hc        1 MOL      0.054014
     31 H11         3.0380    3.7560   -0.4290 hc        1 MOL      0.054014
     32 H12         2.7130    5.8150   -1.8700 hc        1 MOL      0.019976
     33 H13         1.6520    4.8600   -2.9270 hc        1 MOL      0.019976
     34 H14         3.4790    3.3810   -3.4340 hc        1 MOL      0.008629
     35 H15         4.5850    4.2730   -2.4050 hc        1 MOL      0.008629
     36 H16         3.8610    6.3510   -3.7540 hx        1 MOL      0.060043
     37 H17         3.0970    5.3310   -4.8650 hx        1 MOL      0.060043
     38 H18         5.1140    4.4200   -5.4300 hn        1 MOL      0.383545
     39 H19         5.3650    6.0660   -5.3060 hn        1 MOL      0.383545
     40 H20         5.9620    5.2600   -4.1660 hn        1 MOL      0.383545
     41 N4         -1.1070    4.3350   -0.9360 n         1 MOL     -0.132343
     42 C13        -2.4400    4.7550   -1.4540 c3        1 MOL      0.001216
     43 C14        -3.6060    4.6690   -0.4700 c         1 MOL      0.354231
     44 O6         -4.7560    4.7950   -0.8660 o         1 MOL     -0.501027
     45 C15        -2.7330    3.9950   -2.7430 c3        1 MOL     -0.182051
     46 C16        -2.5230    2.4610   -2.7020 c         1 MOL      0.656294
     47 O7         -2.6350    1.9690   -1.6050 o         1 MOL     -0.683594
     48 O8         -2.3250    1.7260   -3.6450 o         1 MOL     -0.683594
     49 H21        -1.0730    3.5060   -0.3580 hn        1 MOL      0.070978
     50 H22        -2.4290    5.8080   -1.7360 h1        1 MOL      0.134871
     51 H23        -2.0690    4.4940   -3.4510 hc        1 MOL      0.057049
     52 H24        -3.7240    4.1990   -3.1440 hc        1 MOL      0.057049
     53 N5         -3.3630    4.3750    0.8210 n         1 MOL     -0.100360
     54 C17        -4.4070    4.1420    1.7600 c3        1 MOL     -0.078095
     55 C18        -5.4080    3.0390    1.3700 c         1 MOL      0.428264
     56 O9         -6.4770    2.9700    2.0280 o         1 MOL     -0.556445
     57 H25        -2.4070    4.3670    1.1390 hn        1 MOL      0.092498
     58 H26        -5.0080    5.0140    2.0220 h1        1 MOL      0.076201
     59 H27        -3.9310    3.8240    2.6870 h1        1 MOL      0.076201
     60 N6         -5.1200    2.1380    0.4440 n         1 MOL     -0.262158
     61 C19        -6.1880    1.4340   -0.2590 c3        1 MOL      0.008707
     62 C20        -6.6560    0.1650    0.4500 c         1 MOL      0.349476
     63 O10        -7.7600   -0.3450    0.1200 o         1 MOL     -0.528405
     64 C21        -5.7170    1.1700   -1.6680 c3        1 MOL     -0.365069
     65 C22        -5.0950   -0.1700   -1.8900 c         1 MOL      0.713875
     66 N7         -5.6990   -0.9980   -2.6740 n         1 MOL     -0.637707
     67 O11        -4.0810   -0.5150   -1.1970 o         1 MOL     -0.716201
     68 H28        -4.1740    2.2040    0.1030 hn        1 MOL      0.313100
     69 H29        -6.9780    2.1810   -0.3010 h1        1 MOL      0.154658
     70 H30        -4.9790    1.8740   -2.0590 hc        1 MOL      0.128926
     71 H31        -6.5830    1.2350   -2.3250 hc        1 MOL      0.128926
     72 H32        -6.6040   -0.7390   -3.0550 hn        1 MOL      0.336906
     73 H33        -5.3490   -1.9240   -2.8670 hn        1 MOL      0.336906
     74 N8         -5.8760   -0.4560    1.3400 n         1 MOL     -0.014717
     75 C23        -6.3260   -1.4140    2.3270 c3        1 MOL     -0.250539
     76 C24        -5.3830   -2.5520    2.4790 c         1 MOL      0.573165
     77 O12        -5.5210   -3.4320    3.2920 o         1 MOL     -0.587643
     78 H34        -4.9510   -0.0800    1.4970 hn        1 MOL      0.130274
     79 H35        -7.2810   -1.8130    1.9680 h1        1 MOL      0.122835
     80 H36        -6.3230   -0.9800    3.3250 h1        1 MOL      0.122835
     81 N9         -4.4380   -2.6580    1.5920 n         1 MOL     -0.186328
     82 C25        -3.3880   -3.6560    1.6790 c3        1 MOL     -0.072761
     83 C26        -2.0950   -3.1050    1.1740 c         1 MOL      0.554878
     84 O13        -2.0210   -2.4340    0.1430 o         1 MOL     -0.646916
     85 C27        -3.7470   -4.9880    0.9280 c3        1 MOL     -0.013751
     86 C28        -4.5550   -4.8520   -0.3760 ca        1 MOL      0.064944
     87 C29        -5.9430   -5.0540   -0.3650 ca        1 MOL     -0.224107
     88 C30        -3.9330   -4.5670   -1.5500 ca        1 MOL     -0.224107
     89 C31        -6.6570   -5.0780   -1.5850 ca        1 MOL     -0.180526
     90 C32        -4.5780   -4.6160   -2.7680 ca        1 MOL     -0.180526
     91 C33        -5.9130   -4.9250   -2.8140 ca        1 MOL      0.267843
     92 O14        -6.5340   -4.9860   -3.9810 oh        1 MOL     -0.476056
     93 H37        -4.2440   -1.9380    0.9020 hn        1 MOL      0.188257
     94 H38        -3.2000   -3.9170    2.7270 h1        1 MOL      0.069082
     95 H39        -4.3140   -5.6170    1.6250 hc        1 MOL      0.035945
     96 H40        -2.8500   -5.6080    0.8090 hc        1 MOL      0.035945
     97 H41        -6.3960   -5.1110    0.6090 ha        1 MOL      0.169707
     98 H42        -2.8880   -4.3050   -1.4800 ha        1 MOL      0.169707
     99 H43        -7.7230   -5.2440   -1.5650 ha        1 MOL      0.134131
    100 H44        -4.0040   -4.4550   -3.6640 ha        1 MOL      0.134131
    101 H45        -6.0680   -4.5850   -4.7090 ho        1 MOL      0.360720
    102 N10        -1.0290   -3.3130    1.9520 n         1 MOL     -0.474836
    103 C34         0.3260   -2.8060    1.8290 c3        1 MOL      0.071854
    104 C35         1.4580   -3.7950    1.6160 c         1 MOL      0.579233
    105 O15         1.3960   -4.8850    2.0910 o         1 MOL     -0.541780
    106 C36         0.6540   -1.8540    3.1020 c3        1 MOL     -0.058148
    107 C37         1.8730   -0.9210    2.7710 c3        1 MOL      0.626375
    108 C38         0.7690   -2.5450    4.4660 c3        1 MOL     -0.297646
    109 C39         2.2860   -0.0310    3.9030 c3        1 MOL     -0.291419
    110 H46        -1.1650   -3.9920    2.6850 hn        1 MOL      0.293727
    111 H47         0.1810   -2.1370    0.9750 h1        1 MOL      0.203150
    112 H48        -0.1780   -1.1540    3.1720 hc        1 MOL      0.081801
    113 H49         1.4290   -0.2660    2.0220 hc        1 MOL     -0.262417
    114 H50         2.7140   -1.4700    2.3360 hc        1 MOL     -0.262417
    115 H51        -0.1450   -3.1250    4.5950 hc        1 MOL      0.070142
    116 H52         1.6140   -3.2300    4.4550 hc        1 MOL      0.070142
    117 H53         0.8410   -1.8070    5.2620 hc        1 MOL      0.070142
    118 H54         1.3980    0.3700    4.3920 hc        1 MOL      0.058336
    119 H55         2.8550   -0.7050    4.5370 hc        1 MOL      0.058336
    120 H56         2.9220    0.7300    3.4450 hc        1 MOL      0.058336
    121 N11         2.4210   -3.3470    0.7270 n         1 MOL     -0.361902
    122 C40         3.4840   -4.1600    0.0680 c3        1 MOL      0.097213
    123 C41         4.8820   -3.5300    0.0690 c         1 MOL      0.337014
    124 O16         5.0910   -2.3560    0.3070 o         1 MOL     -0.246838
    125 C42         3.0000   -4.4010   -1.3520 c3        1 MOL      0.157702
    126 O17         2.8700   -3.0740   -1.9850 oh        1 MOL     -0.613249
    127 H57         2.2970   -2.3810    0.4380 hn        1 MOL      0.112123
    128 H58         3.6160   -5.1660    0.4760 h1        1 MOL      0.034166
    129 H59         2.0460   -4.9090   -1.1920 h1        1 MOL      0.020856
    130 H60         3.6570   -5.1000   -1.8650 h1        1 MOL      0.020856
    131 H61         2.2070   -2.5700   -1.5090 ho        1 MOL      0.425013
    132 N12         5.9360   -4.3020   -0.1030 n         1 MOL     -0.394862
    133 C43         7.3200   -3.9990    0.2900 c3        1 MOL      0.044677
    134 C44         7.8370   -2.5960   -0.0800 c         1 MOL      0.558865
    135 O18         8.2560   -1.8620    0.7960 o         1 MOL     -0.504588
    136 C45         8.2760   -5.1060   -0.1800 c3        1 MOL     -0.301030
    137 H62         5.7750   -5.2670   -0.3620 hn        1 MOL      0.283602
    138 H63         7.3210   -4.0880    1.3710 h1        1 MOL      0.093476
    139 H64         7.8750   -6.1120   -0.0250 hc        1 MOL      0.097561
    140 H65         8.6360   -5.0930   -1.2080 hc        1 MOL      0.097561
    141 H66         9.1850   -4.9740    0.4120 hc        1 MOL      0.097561
    142 N13         7.8230   -2.1900   -1.3820 n         1 MOL     -0.513826
    143 C46         7.9860   -0.7940   -1.7610 c3        1 MOL      0.167473
    144 C47         7.0070    0.3000   -1.2790 c         1 MOL      0.332868
    145 O19         7.4670    1.4340   -1.1010 o         1 MOL     -0.513554
    146 C48         7.9140   -0.7300   -3.3140 c3        1 MOL     -0.281034
    147 H67         7.4750   -2.8400   -2.0720 hn        1 MOL      0.289350
    148 H68         8.9760   -0.4760   -1.4340 h1        1 MOL      0.088336
    149 H69         6.9100   -0.8160   -3.7260 hc        1 MOL      0.078881
    150 H70         8.3210    0.2480   -3.5730 hc        1 MOL      0.078881
    151 H71         8.4670   -1.4810   -3.8660 hc        1 MOL      0.078881
    152 N14         5.7680   -0.0310   -0.9730 n         1 MOL     -0.274021
    153 C49         4.9450    0.8930   -0.1840 c3        1 MOL     -0.039005
    154 C50         5.3120    0.9670    1.2860 c         1 MOL      0.445778
    155 O20         5.1650    2.0440    1.8940 o         1 MOL     -0.541475
    156 C51         3.4310    0.3980   -0.3200 c3        1 MOL     -0.227166
    157 C52         2.9680    0.2220   -1.7200 c3        1 MOL     -0.162482
    158 C53         1.5550   -0.3010   -1.8090 c         1 MOL      0.856147
    159 O21         1.2050   -1.2810   -1.0840 o         1 MOL     -0.787372
    160 O22         0.6830    0.3030   -2.4990 o         1 MOL     -0.787372
    161 H72         5.4800   -0.9960   -1.0750 hn        1 MOL      0.243938
    162 H73         4.9940    1.9330   -0.4950 h1        1 MOL      0.088574
    163 H74         2.7690    1.1160    0.1720 hc        1 MOL      0.154404
    164 H75         3.2290   -0.5010    0.2580 hc        1 MOL      0.154404
    165 H76         3.5620   -0.4900   -2.2880 hc        1 MOL      0.017448
    166 H77         2.9430    1.2000   -2.2070 hc        1 MOL      0.017448
    167 N15         5.8880   -0.0820    1.8820 n         1 MOL     -0.014975
    168 C54         6.5060   -0.1120    3.2160 c3        1 MOL     -0.177584
    169 H78         5.8300   -0.5990    3.9180 h1        1 MOL      0.076448
    170 H79         7.4430   -0.6680    3.1700 h1        1 MOL      0.076448
    171 H80         6.7040    0.9060    3.5490 h1        1 MOL      0.076448
    172 H81         5.8150   -0.9660    1.4020 hn        1 MOL      0.077822
    173 Ca1        -1.4960   -0.3130   -1.4270 Ca        1 MOL      1.796508
    174 O23        -1.1040   -2.7810   -2.4870 oh        1 MOL     -0.823495
    175 H82        -1.2930   -3.0090   -3.3980 ho        1 MOL      0.383380
    176 H83        -1.2570   -3.5860   -1.9960 ho        1 MOL      0.383380
    177 O24        -3.0300   -0.8040   -4.1170 oh        1 MOL     -0.823495
    178 H84        -2.9470   -1.1830   -4.9870 ho        1 MOL      0.383380
    179 H85        -2.5470    0.0200   -4.1610 ho        1 MOL      0.383380
@<TRIPOS>BOND
     1    1    2 1   
     2    1    4 1   
     3    1    5 1   
     4    1    6 1   
     5    2    3 2   
     6    2    7 1   
     7    7    8 1   
     8    7   15 1   
     9    8    9 1   
    10    8   11 1   
    11    8   16 1   
    12    9   10 2   
    13    9   19 1   
    14   11   12 1   
    15   11   17 1   
    16   11   18 1   
    17   12   13 1   
    18   12   14 1   
    19   19   20 1   
    20   19   28 1   
    21   20   21 1   
    22   20   23 1   
    23   20   29 1   
    24   21   22 2   
    25   21   41 1   
    26   23   24 1   
    27   23   30 1   
    28   23   31 1   
    29   24   25 1   
    30   24   32 1   
    31   24   33 1   
    32   25   26 1   
    33   25   34 1   
    34   25   35 1   
    35   26   27 1   
    36   26   36 1   
    37   26   37 1   
    38   27   38 1   
    39   27   39 1   
    40   27   40 1   
    41   41   42 1   
    42   41   49 1   
    43   42   43 1   
    44   42   45 1   
    45   42   50 1   
    46   43   44 2   
    47   43   53 1   
    48   45   46 1   
    49   45   51 1   
    50   45   52 1   
    51   46   47 1   
    52   46   48 1   
    53   53   54 1   
    54   53   57 1   
    55   54   55 1   
    56   54   58 1   
    57   54   59 1   
    58   55   56 2   
    59   55   60 1   
    60   60   61 1   
    61   60   68 1   
    62   61   62 1   
    63   61   64 1   
    64   61   69 1   
    65   62   63 2   
    66   62   74 1   
    67   64   65 1   
    68   64   70 1   
    69   64   71 1   
    70   65   66 1   
    71   65   67 2   
    72   66   72 1   
    73   66   73 1   
    74   74   75 1   
    75   74   78 1   
    76   75   76 1   
    77   75   79 1   
    78   75   80 1   
    79   76   77 2   
    80   76   81 1   
    81   81   82 1   
    82   81   93 1   
    83   82   83 1   
    84   82   85 1   
    85   82   94 1   
    86   83   84 2   
    87   83  102 1   
    88   85   86 1   
    89   85   95 1   
    90   85   96 1   
    91   86   87 ar  
    92   86   88 ar  
    93   87   89 ar  
    94   87   97 1   
    95   88   90 ar  
    96   88   98 1   
    97   89   91 ar  
    98   89   99 1   
    99   90   91 ar  
   100   90  100 1   
   101   91   92 1   
   102   92  101 1   
   103  102  103 1   
   104  102  110 1   
   105  103  104 1   
   106  103  106 1   
   107  103  111 1   
   108  104  105 2   
   109  104  121 1   
   110  106  107 1   
   111  106  108 1   
   112  106  112 1   
   113  107  109 1   
   114  107  113 1   
   115  107  114 1   
   116  108  115 1   
   117  108  116 1   
   118  108  117 1   
   119  109  118 1   
   120  109  119 1   
   121  109  120 1   
   122  121  122 1   
   123  121  127 1   
   124  122  123 1   
   125  122  125 1   
   126  122  128 1   
   127  123  124 2   
   128  123  132 1   
   129  125  126 1   
   130  125  129 1   
   131  125  130 1   
   132  126  131 1   
   133  132  133 1   
   134  132  137 1   
   135  133  134 1   
   136  133  136 1   
   137  133  138 1   
   138  134  135 2   
   139  134  142 1   
   140  136  139 1   
   141  136  140 1   
   142  136  141 1   
   143  142  143 1   
   144  142  147 1   
   145  143  144 1   
   146  143  146 1   
   147  143  148 1   
   148  144  145 2   
   149  144  152 1   
   150  146  149 1   
   151  146  150 1   
   152  146  151 1   
   153  152  153 1   
   154  152  161 1   
   155  153  154 1   
   156  153  156 1   
   157  153  162 1   
   158  154  155 2   
   159  154  167 1   
   160  156  157 1   
   161  156  163 1   
   162  156  164 1   
   163  157  158 1   
   164  157  165 1   
   165  157  166 1   
   166  158  159 1   
   167  158  160 1   
   168  167  168 1   
   169  167  172 1   
   170  168  169 1   
   171  168  170 1   
   172  168  171 1   
   173  174  175 1   
   174  174  176 1   
   175  177  178 1   
   176  177  179 1   
@<TRIPOS>SUBSTRUCTURE
     1 MOL         1 TEMP              0 ****  ****    0 ROOT
