@<TRIPOS>MOLECULE
MOL
  178   175     1     0     0
SMALL
resp


@<TRIPOS>ATOM
      1 C1          0.4790   -3.8530    5.4730 c3        1 MOL     -0.284413
      2 C2          0.8400   -3.3860    4.0400 c         1 MOL      0.708036
      3 O1          0.2230   -3.8430    3.0560 o         1 MOL     -0.566334
      4 H1         -0.4840   -4.3650    5.4560 hc        1 MOL      0.070477
      5 H2          1.2470   -4.5370    5.8380 hc        1 MOL      0.070477
      6 H3          0.4170   -2.9880    6.1330 hc        1 MOL      0.070477
      7 N1          1.9690   -2.6810    3.8130 n         1 MOL     -0.700931
      8 C3          2.4310   -2.2980    2.4770 c3        1 MOL      0.361873
      9 C4          3.0780   -3.5150    1.8100 c         1 MOL      0.579937
     10 O2          4.1220   -4.0100    2.3070 o         1 MOL     -0.607862
     11 C5          3.4700   -1.2060    2.6730 c3        1 MOL     -0.414599
     12 C6          4.1840   -0.7460    1.3660 c         1 MOL      0.817192
     13 O3          5.1860    0.0360    1.5520 o         1 MOL     -0.726293
     14 O4          3.7080   -1.0320    0.2540 o         1 MOL     -0.726293
     15 H4          2.5260   -2.4770    4.6370 hn        1 MOL      0.331380
     16 H5          1.6590   -1.9720    1.7870 h1        1 MOL     -0.054237
     17 H6          4.1450   -1.5310    3.4700 hc        1 MOL      0.095608
     18 H7          2.9170   -0.3530    3.0490 hc        1 MOL      0.095608
     19 N2          2.5980   -3.9260    0.6290 n         1 MOL     -0.484278
     20 C7          3.2450   -5.0990   -0.0450 c3        1 MOL      0.340529
     21 C8          4.5940   -4.7870   -0.7200 c         1 MOL      0.431791
     22 O5          5.3140   -5.7080   -1.1630 o         1 MOL     -0.560481
     23 C9          2.3220   -5.7740   -1.1100 c3        1 MOL     -0.431274
     24 H8          1.7940   -3.5170    0.1850 hn        1 MOL      0.328362
     25 H9          3.5520   -5.8030    0.7270 h1        1 MOL     -0.018776
     26 H10         1.3750   -5.8110   -0.5890 hc        1 MOL      0.120861
     27 H11         2.2820   -5.1190   -1.9870 hc        1 MOL      0.120861
     28 H12         2.7250   -6.7450   -1.3930 hc        1 MOL      0.120861
     29 N3          4.9670   -3.4550   -0.9080 n         1 MOL     -0.369633
     30 C10         5.9320   -2.9280   -1.9070 c3        1 MOL      0.016899
     31 C11         7.1830   -2.2590   -1.2690 c         1 MOL      0.335484
     32 O6          8.0900   -1.9370   -2.0370 o         1 MOL     -0.513167
     33 C12         5.1530   -2.0150   -2.9090 c3        1 MOL      0.133255
     34 C13         3.7900   -2.5370   -3.3330 c         1 MOL      0.648634
     35 O7          2.8270   -2.2030   -2.5840 o         1 MOL     -0.685160
     36 O8          3.6280   -3.2710   -4.3060 o         1 MOL     -0.685160
     37 H13         4.3000   -2.7950   -0.5360 hn        1 MOL      0.199678
     38 H14         6.3290   -3.7700   -2.4750 h1        1 MOL      0.111752
     39 H15         5.7200   -1.9150   -3.8420 hc        1 MOL     -0.080020
     40 H16         4.8660   -1.0940   -2.4030 hc        1 MOL     -0.080020
     41 N4          7.2310   -2.1800    0.0500 n         1 MOL     -0.126087
     42 C14         8.3340   -1.5350    0.7470 c3        1 MOL     -0.280550
     43 C15         8.4740   -0.0610    0.3570 c         1 MOL      0.466788
     44 O9          9.5910    0.5470    0.5190 o         1 MOL     -0.564981
     45 H17         6.4470   -2.5460    0.5720 hn        1 MOL      0.198857
     46 H18         9.3080   -1.9050    0.4260 h1        1 MOL      0.137787
     47 H19         8.1910   -1.6180    1.8230 h1        1 MOL      0.137787
     48 N5          7.4300    0.5730   -0.2540 n         1 MOL     -0.237531
     49 C16         7.4180    1.8860   -0.9620 c3        1 MOL     -0.077454
     50 C17         6.9450    3.0360   -0.0900 c         1 MOL      0.456154
     51 O10         7.2190    4.1600   -0.4430 o         1 MOL     -0.579979
     52 C18         6.4720    1.8340   -2.2130 c3        1 MOL     -0.117145
     53 C19         5.0580    2.3000   -1.9590 c         1 MOL      0.561318
     54 N6          4.7060    3.5080   -2.2210 n         1 MOL     -0.805550
     55 O11         4.2310    1.4540   -1.5400 o         1 MOL     -0.556067
     56 H20         6.5420    0.1060   -0.1480 hn        1 MOL      0.313506
     57 H21         8.4550    2.0990   -1.2430 h1        1 MOL      0.138072
     58 H22         6.4500    0.8300   -2.6230 hc        1 MOL      0.050157
     59 H23         6.8190    2.5930   -2.9200 hc        1 MOL      0.050157
     60 H24         5.3670    4.1260   -2.6630 hn        1 MOL      0.386995
     61 H25         3.7780    3.8400   -1.9860 hn        1 MOL      0.386995
     62 N7          6.2800    2.8570    1.0090 n         1 MOL     -0.180781
     63 C20         5.9680    3.8210    2.0300 c3        1 MOL     -0.115136
     64 C21         4.5560    4.3720    1.9350 c         1 MOL      0.448952
     65 O12         4.1640    5.2780    2.6690 o         1 MOL     -0.578996
     66 H26         6.0160    1.8960    1.2030 hn        1 MOL      0.176574
     67 H27         6.6840    4.6340    2.0020 h1        1 MOL      0.113854
     68 H28         6.0970    3.4180    3.0340 h1        1 MOL      0.113854
     69 N8          3.6430    3.9240    1.0860 n         1 MOL     -0.058912
     70 C22         2.2480    4.3010    1.0100 c3        1 MOL     -0.127607
     71 C23         1.2920    3.0830    1.0140 c         1 MOL      0.541382
     72 O13         1.6500    2.0030    0.6460 o         1 MOL     -0.598853
     73 C24         1.8640    5.1830   -0.1670 c3        1 MOL      0.416986
     74 C25         2.7280    6.4380   -0.2520 c3        1 MOL     -0.368934
     75 O14         1.9180    4.5170   -1.3540 oh        1 MOL     -0.704239
     76 H29         3.8700    3.2000    0.4210 hn        1 MOL      0.114282
     77 H30         2.0740    4.9170    1.8910 h1        1 MOL      0.094375
     78 H31         0.8660    5.6040   -0.0490 h1        1 MOL      0.020905
     79 H32         2.0950    5.2020   -2.0060 ho        1 MOL      0.419668
     80 H33         3.7020    6.1510   -0.6730 hc        1 MOL      0.092443
     81 H34         2.2670    7.1970   -0.8790 hc        1 MOL      0.092443
     82 H35         2.7940    6.8650    0.7450 hc        1 MOL      0.092443
     83 N9          0.0580    3.3190    1.4570 n         1 MOL     -0.323759
     84 C26        -0.9530    2.3110    1.4630 c3        1 MOL      0.008821
     85 C27        -2.1250    2.8160    0.6370 c         1 MOL      0.363748
     86 O15        -2.8310    3.8430    0.7660 o         1 MOL     -0.543199
     87 C28        -1.4010    2.0220    2.8690 c3        1 MOL      0.500345
     88 C29        -1.7220    3.3190    3.6890 c3        1 MOL     -0.024548
     89 C30        -0.3750    1.2380    3.6650 c3        1 MOL     -0.669528
     90 C31        -2.4540    2.9580    5.0160 c3        1 MOL     -0.106037
     91 H36        -0.1240    4.2700    1.7500 hn        1 MOL      0.167180
     92 H37        -0.5530    1.3930    1.0390 h1        1 MOL      0.059824
     93 H38        -2.2950    1.4010    2.8660 hc        1 MOL     -0.130111
     94 H39        -2.3940    3.9700    3.1280 hc        1 MOL      0.004208
     95 H40        -0.7750    3.7700    3.9740 hc        1 MOL      0.004208
     96 H41         0.6230    1.6700    3.6290 hc        1 MOL      0.156943
     97 H42        -0.7020    1.0500    4.6920 hc        1 MOL      0.156943
     98 H43        -0.4380    0.2470    3.2180 hc        1 MOL      0.156943
     99 H44        -1.9260    2.3690    5.7670 hc        1 MOL      0.014958
    100 H45        -2.7620    3.8750    5.5010 hc        1 MOL      0.014958
    101 H46        -3.3260    2.4120    4.6590 hc        1 MOL      0.014958
    102 N10        -2.3700    1.9280   -0.3390 n         1 MOL     -0.357339
    103 C32        -3.4780    1.9110   -1.3460 c3        1 MOL      0.314804
    104 C33        -4.7290    1.1380   -0.7500 c         1 MOL      0.270737
    105 O16        -4.7020    0.5490    0.3240 o         1 MOL     -0.301267
    106 C34        -3.0960    1.3180   -2.6640 c3        1 MOL     -0.310895
    107 C35        -4.0410    1.5890   -3.7750 c         1 MOL      0.698072
    108 O17        -3.9540    0.9840   -4.8910 o         1 MOL     -0.704417
    109 O18        -4.9800    2.4250   -3.6150 o         1 MOL     -0.704417
    110 H47        -1.8350    1.0750   -0.2340 hn        1 MOL      0.347964
    111 H48        -3.8410    2.9240   -1.4790 h1        1 MOL      0.030851
    112 H49        -2.9860    0.2360   -2.5570 hc        1 MOL      0.049664
    113 H50        -2.1240    1.7410   -2.9110 hc        1 MOL      0.049664
    114 N11        -5.9190    1.4230   -1.2980 n         1 MOL     -0.547279
    115 C36        -7.2130    1.0140   -0.7580 c3        1 MOL      0.597000
    116 C37        -7.2450   -0.5200   -0.3880 c         1 MOL      0.221031
    117 O19        -7.7220   -0.8570    0.7320 o         1 MOL     -0.497379
    118 C38        -8.3130    1.3390   -1.7230 c3        1 MOL     -0.321907
    119 C39        -9.7530    1.2140   -1.2090 ca        1 MOL      0.243008
    120 C40       -10.1170    1.7430    0.0790 ca        1 MOL     -0.274944
    121 C41       -10.7270    0.5740   -1.9690 ca        1 MOL     -0.274944
    122 C42       -11.4200    1.5560    0.5090 ca        1 MOL     -0.029049
    123 C43       -12.0200    0.3030   -1.4710 ca        1 MOL     -0.029049
    124 C44       -12.4250    0.8170   -0.1970 ca        1 MOL     -0.215660
    125 H51        -5.8630    2.1470   -1.9980 hn        1 MOL      0.277695
    126 H52        -7.4170    1.5680    0.1580 h1        1 MOL     -0.032139
    127 H53        -8.2710    0.6580   -2.5800 hc        1 MOL      0.077172
    128 H54        -8.1290    2.3820   -2.0050 hc        1 MOL      0.077172
    129 H55        -9.4680    2.3260    0.7130 ha        1 MOL      0.143592
    130 H56       -10.4820    0.1360   -2.9230 ha        1 MOL      0.143592
    131 H57       -11.6450    2.0190    1.4490 ha        1 MOL      0.086890
    132 H58       -12.7180   -0.3050   -2.0180 ha        1 MOL      0.086890
    133 H59       -13.3970    0.6680    0.2480 ha        1 MOL      0.125047
    134 N12        -6.7150   -1.4590   -1.1660 n         1 MOL     -0.043197
    135 C45        -6.5540   -2.8820   -0.7660 c3        1 MOL      0.005250
    136 C46        -5.7420   -3.1000    0.5620 c         1 MOL      0.240490
    137 O20        -6.1530   -3.8680    1.4760 o         1 MOL     -0.492067
    138 C47        -5.8490   -3.4450   -2.0080 c3        1 MOL      0.070632
    139 C48        -6.2770   -2.6720   -3.2700 c3        1 MOL     -0.053355
    140 C49        -6.2300   -1.3220   -2.5560 c3        1 MOL     -0.189877
    141 H60        -7.5240   -3.3800   -0.7200 h1        1 MOL      0.067574
    142 H61        -4.7760   -3.4940   -1.8790 hc        1 MOL     -0.011667
    143 H62        -6.1340   -4.4890   -2.1220 hc        1 MOL     -0.011667
    144 H63        -5.6540   -2.8060   -4.1600 hc        1 MOL      0.042513
    145 H64        -7.2720   -3.0940   -3.4720 hc        1 MOL      0.042513
    146 H65        -5.1740   -1.0430   -2.5770 h1        1 MOL      0.106871
    147 H66        -6.8720   -0.6470   -3.1320 h1        1 MOL      0.106871
    148 N13        -4.7000   -2.2970    0.7430 n         1 MOL     -0.029980
    149 C50        -3.8660   -2.2970    1.9700 c3        1 MOL     -0.209760
    150 C51        -4.5180   -1.6050    3.2300 c         1 MOL      0.510629
    151 O21        -4.4280   -2.0730    4.3500 o         1 MOL     -0.564117
    152 C52        -2.4930   -1.6790    1.5970 c3        1 MOL      0.393165
    153 C53        -1.9490   -2.1320    0.2140 c3        1 MOL     -0.448040
    154 C54        -0.5650   -1.4770   -0.1800 c         1 MOL      1.043685
    155 O22        -0.5680   -0.2810   -0.4330 o         1 MOL     -0.849401
    156 O23         0.4980   -2.1040   -0.3510 o         1 MOL     -0.849401
    157 H67        -4.4580   -1.7020   -0.0320 hn        1 MOL      0.209401
    158 H68        -3.7200   -3.3390    2.2560 h1        1 MOL      0.102847
    159 H69        -1.8550   -1.9450    2.4440 hc        1 MOL     -0.097812
    160 H70        -2.5630   -0.6010    1.4980 hc        1 MOL     -0.097812
    161 H71        -2.7220   -1.8220   -0.4910 hc        1 MOL      0.063803
    162 H72        -1.9300   -3.2220    0.2890 hc        1 MOL      0.063803
    163 N14        -5.1550   -0.4900    2.8920 n         1 MOL      0.065675
    164 C55        -5.9830    0.2240    3.8900 c3        1 MOL     -0.387066
    165 H73        -6.9570   -0.2610    3.9670 h1        1 MOL      0.122281
    166 H74        -5.4870    0.1980    4.8600 h1        1 MOL      0.122281
    167 H75        -6.1170    1.2590    3.5780 h1        1 MOL      0.122281
    168 H76        -5.1450   -0.2060    1.9230 hn        1 MOL     -0.025683
    169 Ca1         1.8630   -0.1170   -1.3430 Ca        1 MOL      1.798107
    170 O24         0.1810   -0.8840   -3.3710 oh        1 MOL     -0.875895
    171 H77        -0.2450   -0.3260   -4.0290 ho        1 MOL      0.425977
    172 H78        -0.4590   -1.5680   -3.1900 ho        1 MOL      0.425977
    173 O25         2.8140    0.5530   -3.6680 oh        1 MOL     -0.875895
    174 H79         3.7010    0.7640   -3.9670 ho        1 MOL      0.425977
    175 H80         2.3280    0.3730   -4.4760 ho        1 MOL      0.425977
    176 O26         0.6070    2.2210   -2.2040 oh        1 MOL     -0.875895
    177 H81         0.9450    3.0010   -1.7750 ho        1 MOL      0.425977
    178 H82         0.7250    2.3870   -3.1390 ho        1 MOL      0.425977
@<TRIPOS>BOND
     1    1    2 1   
     2    1    4 1   
     3    1    5 1   
     4    1    6 1   
     5    2    3 2   
     6    2    7 1   
     7    7    8 1   
     8    7   15 1   
     9    8    9 1   
    10    8   11 1   
    11    8   16 1   
    12    9   10 2   
    13    9   19 1   
    14   11   12 1   
    15   11   17 1   
    16   11   18 1   
    17   12   13 1   
    18   12   14 1   
    19   19   20 1   
    20   19   24 1   
    21   20   21 1   
    22   20   23 1   
    23   20   25 1   
    24   21   22 2   
    25   21   29 1   
    26   23   26 1   
    27   23   27 1   
    28   23   28 1   
    29   29   30 1   
    30   29   37 1   
    31   30   31 1   
    32   30   33 1   
    33   30   38 1   
    34   31   32 2   
    35   31   41 1   
    36   33   34 1   
    37   33   39 1   
    38   33   40 1   
    39   34   35 1   
    40   34   36 1   
    41   41   42 1   
    42   41   45 1   
    43   42   43 1   
    44   42   46 1   
    45   42   47 1   
    46   43   44 2   
    47   43   48 1   
    48   48   49 1   
    49   48   56 1   
    50   49   50 1   
    51   49   52 1   
    52   49   57 1   
    53   50   51 2   
    54   50   62 1   
    55   52   53 1   
    56   52   58 1   
    57   52   59 1   
    58   53   54 1   
    59   53   55 2   
    60   54   60 1   
    61   54   61 1   
    62   62   63 1   
    63   62   66 1   
    64   63   64 1   
    65   63   67 1   
    66   63   68 1   
    67   64   65 2   
    68   64   69 1   
    69   69   70 1   
    70   69   76 1   
    71   70   71 1   
    72   70   73 1   
    73   70   77 1   
    74   71   72 2   
    75   71   83 1   
    76   73   74 1   
    77   73   75 1   
    78   73   78 1   
    79   74   80 1   
    80   74   81 1   
    81   74   82 1   
    82   75   79 1   
    83   83   84 1   
    84   83   91 1   
    85   84   85 1   
    86   84   87 1   
    87   84   92 1   
    88   85   86 2   
    89   85  102 1   
    90   87   88 1   
    91   87   89 1   
    92   87   93 1   
    93   88   90 1   
    94   88   94 1   
    95   88   95 1   
    96   89   96 1   
    97   89   97 1   
    98   89   98 1   
    99   90   99 1   
   100   90  100 1   
   101   90  101 1   
   102  102  103 1   
   103  102  110 1   
   104  103  104 1   
   105  103  106 1   
   106  103  111 1   
   107  104  105 2   
   108  104  114 1   
   109  106  107 1   
   110  106  112 1   
   111  106  113 1   
   112  107  108 1   
   113  107  109 1   
   114  114  115 1   
   115  114  125 1   
   116  115  116 1   
   117  115  118 1   
   118  115  126 1   
   119  116  117 2   
   120  116  134 1   
   121  118  119 1   
   122  118  127 1   
   123  118  128 1   
   124  119  120 ar  
   125  119  121 ar  
   126  120  122 ar  
   127  120  129 1   
   128  121  123 ar  
   129  121  130 1   
   130  122  124 ar  
   131  122  131 1   
   132  123  124 ar  
   133  123  132 1   
   134  124  133 1   
   135  134  135 1   
   136  134  140 1   
   137  135  136 1   
   138  135  138 1   
   139  135  141 1   
   140  136  137 2   
   141  136  148 1   
   142  138  139 1   
   143  138  142 1   
   144  138  143 1   
   145  139  140 1   
   146  139  144 1   
   147  139  145 1   
   148  140  146 1   
   149  140  147 1   
   150  148  149 1   
   151  148  157 1   
   152  149  150 1   
   153  149  152 1   
   154  149  158 1   
   155  150  151 2   
   156  150  163 1   
   157  152  153 1   
   158  152  159 1   
   159  152  160 1   
   160  153  154 1   
   161  153  161 1   
   162  153  162 1   
   163  154  155 1   
   164  154  156 1   
   165  163  164 1   
   166  163  168 1   
   167  164  165 1   
   168  164  166 1   
   169  164  167 1   
   170  170  171 1   
   171  170  172 1   
   172  173  174 1   
   173  173  175 1   
   174  176  177 1   
   175  176  178 1   
@<TRIPOS>SUBSTRUCTURE
     1 MOL         1 TEMP              0 ****  ****    0 ROOT
