@<TRIPOS>MOLECULE
MOL
  189   185     1     0     0
SMALL
resp


@<TRIPOS>ATOM
      1 C1         -0.4560    4.5530    5.6570 c3        1 MOL     -0.339633
      2 C2         -0.9650    3.8420    4.4020 c         1 MOL      0.723883
      3 O1         -1.1320    2.6000    4.3990 o         1 MOL     -0.611568
      4 H1         -0.9080    5.5430    5.7220 hc        1 MOL      0.084953
      5 H2         -0.7260    3.9720    6.5380 hc        1 MOL      0.084953
      6 H3          0.6280    4.6520    5.6040 hc        1 MOL      0.084953
      7 N1         -1.3200    4.6470    3.3960 n         1 MOL     -0.552772
      8 C3         -1.9430    4.0450    2.2390 c3        1 MOL      0.187572
      9 C4         -1.7420    4.9760    1.0360 c         1 MOL      0.489176
     10 O2         -1.8850    6.1810    1.1990 o         1 MOL     -0.586950
     11 C5         -3.4950    3.9300    2.4630 c3        1 MOL     -0.143178
     12 C6         -4.2730    3.0760    1.4620 c         1 MOL      0.679001
     13 O3         -5.5170    3.2140    1.4740 o         1 MOL     -0.670630
     14 O4         -3.6560    2.3140    0.6780 o         1 MOL     -0.670630
     15 H4         -1.0850    5.6290    3.4000 hn        1 MOL      0.309504
     16 H5         -1.4900    3.0880    1.9800 h1        1 MOL     -0.003145
     17 H6         -3.9150    4.9270    2.6130 hc        1 MOL      0.030613
     18 H7         -3.6070    3.5420    3.4710 hc        1 MOL      0.030613
     19 N2         -1.6150    4.4610   -0.1850 n         1 MOL     -0.276717
     20 C7         -1.6430    5.3140   -1.4270 c3        1 MOL     -0.023744
     21 C8         -2.6670    4.9770   -2.4210 c         1 MOL      0.533989
     22 O5         -2.7700    5.7360   -3.3980 o         1 MOL     -0.587359
     23 C9         -0.2050    5.5960   -1.9930 c3        1 MOL      0.282228
     24 C10         0.3450    4.3750   -2.7290 c3        1 MOL      0.000064
     25 C11         0.7660    6.2240   -1.0080 c3        1 MOL     -0.311665
     26 C12         1.6860    4.6130   -3.4260 c3        1 MOL     -0.282586
     27 H8         -1.4800    3.4670   -0.2090 hn        1 MOL      0.115731
     28 H9         -1.9470    6.3370   -1.1980 h1        1 MOL      0.069704
     29 H10        -0.3600    6.3600   -2.7620 hc        1 MOL     -0.048778
     30 H11        -0.3500    4.1340   -3.5290 hc        1 MOL      0.055284
     31 H12         0.4730    3.4960   -2.0920 hc        1 MOL      0.055284
     32 H13         1.5030    6.6670   -1.6840 hc        1 MOL      0.068046
     33 H14         0.3900    7.0490   -0.4100 hc        1 MOL      0.068046
     34 H15         1.1690    5.4810   -0.3250 hc        1 MOL      0.068046
     35 H16         1.9840    3.6990   -3.9440 hc        1 MOL      0.056417
     36 H17         1.6350    5.4200   -4.1630 hc        1 MOL      0.056417
     37 H18         2.4160    4.8930   -2.6640 hc        1 MOL      0.056417
     38 N3         -3.4710    3.8930   -2.2720 n         1 MOL     -0.496191
     39 C13        -4.3150    3.3820   -3.3050 c3        1 MOL      0.044033
     40 C14        -5.6700    2.7460   -2.8500 c         1 MOL      0.426290
     41 O6         -6.4690    2.2790   -3.7010 o         1 MOL     -0.553415
     42 C15        -3.5380    2.4060   -4.1670 c3        1 MOL     -0.147193
     43 C16        -2.8810    1.2830   -3.3260 c         1 MOL      0.699941
     44 O7         -3.1830    1.0560   -2.1250 o         1 MOL     -0.707884
     45 O8         -2.0390    0.5740   -3.9470 o         1 MOL     -0.707884
     46 H19        -3.5200    3.4010   -1.3940 hn        1 MOL      0.374583
     47 H20        -4.5460    4.2180   -3.9740 h1        1 MOL      0.083284
     48 H21        -2.7940    2.9800   -4.7270 hc        1 MOL      0.046014
     49 H22        -4.2490    2.0310   -4.9010 hc        1 MOL      0.046014
     50 N4         -5.9790    2.7460   -1.5300 n         1 MOL     -0.279537
     51 C17        -7.2680    2.3180   -1.0580 c3        1 MOL     -0.094563
     52 C18        -7.4810    0.7770   -1.0260 c         1 MOL      0.455883
     53 O9         -8.5180    0.3480   -0.5670 o         1 MOL     -0.618214
     54 H23        -5.2590    2.8550   -0.8250 hn        1 MOL      0.147374
     55 H24        -8.0980    2.7890   -1.5930 h1        1 MOL      0.099726
     56 H25        -7.4400    2.7410   -0.0710 h1        1 MOL      0.099726
     57 N5         -6.5260   -0.0750   -1.3910 n         1 MOL     -0.107902
     58 C19        -6.7660   -1.4300   -1.9280 c3        1 MOL     -0.037878
     59 C20        -7.0290   -2.5060   -0.8160 c         1 MOL      0.433370
     60 O10        -7.3230   -3.6180   -1.2380 o         1 MOL     -0.509248
     61 C21        -5.5860   -1.7990   -2.8890 c3        1 MOL     -0.355103
     62 C22        -4.2000   -1.9070   -2.2190 c         1 MOL      0.901808
     63 O11        -4.0150   -1.5580   -1.0420 o         1 MOL     -0.744249
     64 O12        -3.3290   -2.5920   -2.8240 o         1 MOL     -0.744249
     65 H26        -5.5970    0.3120   -1.5350 hn        1 MOL      0.136870
     66 H27        -7.6970   -1.3790   -2.5020 h1        1 MOL      0.109801
     67 H28        -5.5750   -1.0400   -3.6640 hc        1 MOL      0.106262
     68 H29        -5.6890   -2.7850   -3.3420 hc        1 MOL      0.106262
     69 N6         -6.8810   -2.2110    0.5490 n         1 MOL     -0.202002
     70 C23        -7.0960   -3.1020    1.7270 c3        1 MOL     -0.173111
     71 C24        -5.9110   -4.0090    2.1920 c         1 MOL      0.659197
     72 O13        -6.1260   -5.0450    2.8450 o         1 MOL     -0.585892
     73 H30        -6.4640   -1.3040    0.7040 hn        1 MOL      0.222200
     74 H31        -7.9950   -3.6880    1.5130 h1        1 MOL      0.075566
     75 H32        -7.2580   -2.5590    2.6570 h1        1 MOL      0.075566
     76 N7         -4.6610   -3.6380    1.8150 n         1 MOL     -0.537813
     77 C25        -3.4370   -4.4560    2.0090 c3        1 MOL      0.114541
     78 C26        -2.1710   -3.5480    2.0050 c         1 MOL      0.544243
     79 O14        -2.2220   -2.4610    1.4500 o         1 MOL     -0.546605
     80 C27        -3.3730   -5.6110    0.9820 c3        1 MOL     -0.397331
     81 C28        -3.4860   -5.0680   -0.4570 c3        1 MOL      0.110303
     82 C29        -3.3190   -6.1040   -1.6020 c         1 MOL      0.535935
     83 N8         -3.1930   -5.4930   -2.7620 n         1 MOL     -0.700706
     84 O15        -3.3180   -7.3270   -1.4480 o         1 MOL     -0.591685
     85 H33        -4.6410   -2.7910    1.2680 hn        1 MOL      0.303072
     86 H34        -3.3640   -4.8360    3.0290 h1        1 MOL      0.022129
     87 H35        -4.2190   -6.2700    1.1990 hc        1 MOL      0.127914
     88 H36        -2.4590   -6.1830    1.1640 hc        1 MOL      0.127914
     89 H37        -2.6210   -4.4150   -0.5920 hc        1 MOL      0.039653
     90 H38        -4.4010   -4.5090   -0.5960 hc        1 MOL      0.039653
     91 H39        -3.1280   -4.4890   -2.8030 hn        1 MOL      0.329866
     92 H40        -3.0300   -6.0430   -3.6000 hn        1 MOL      0.329866
     93 N9         -1.0820   -3.8630    2.7330 n         1 MOL     -0.391557
     94 C30         0.1040   -3.0000    2.7660 c3        1 MOL     -0.052400
     95 C31         1.1250   -3.3250    1.7150 c         1 MOL      0.641826
     96 O16         1.3920   -4.5120    1.5530 o         1 MOL     -0.628920
     97 C32         0.6980   -3.0720    4.1820 c3        1 MOL      0.259585
     98 C33         1.9520   -2.2800    4.3200 c3        1 MOL     -0.227544
     99 C34        -0.2710   -2.7460    5.3130 c3        1 MOL     -0.227544
    100 H41        -0.9410   -4.8020    3.0800 hn        1 MOL      0.266927
    101 H42        -0.1950   -1.9680    2.5820 h1        1 MOL      0.091293
    102 H43         1.0040   -4.0950    4.4020 hc        1 MOL     -0.038164
    103 H44         1.7250   -1.2930    3.9170 hc        1 MOL      0.039382
    104 H45         2.2620   -2.1780    5.3670 hc        1 MOL      0.039382
    105 H46         2.6500   -2.6910    3.5970 hc        1 MOL      0.039382
    106 H47        -1.0980   -3.4590    5.2520 hc        1 MOL      0.039382
    107 H48         0.1270   -2.9210    6.3080 hc        1 MOL      0.039382
    108 H49        -0.7240   -1.7520    5.2420 hc        1 MOL      0.039382
    109 N10         1.5880   -2.3970    0.9190 n         1 MOL     -0.345382
    110 C35         2.7990   -2.5150    0.0200 c3        1 MOL      0.253871
    111 C36         4.1320   -2.1570    0.6960 c         1 MOL      0.150618
    112 O17         4.1960   -1.4260    1.6930 o         1 MOL     -0.273742
    113 C37         2.4870   -1.7920   -1.2860 c3        1 MOL     -0.147516
    114 C38         3.6750   -1.6790   -2.2080 c         1 MOL      0.520920
    115 N11         4.0430   -2.8310   -2.7650 n         1 MOL     -0.671205
    116 O18         4.2490   -0.6480   -2.5520 o         1 MOL     -0.467222
    117 H50         1.0940   -1.5130    0.9130 hn        1 MOL      0.150461
    118 H51         2.9270   -3.5580   -0.2900 h1        1 MOL     -0.002181
    119 H52         2.2650   -0.7360   -1.1590 hc        1 MOL      0.079555
    120 H53         1.6090   -2.2450   -1.7360 hc        1 MOL      0.079555
    121 H54         3.6030   -3.7130   -2.5440 hn        1 MOL      0.329588
    122 H55         4.8780   -2.7490   -3.3250 hn        1 MOL      0.329588
    123 N12         5.2750   -2.5450    0.1260 n         1 MOL     -0.184986
    124 C39         6.6080   -2.1580    0.6710 c3        1 MOL      0.140958
    125 C40         6.8960   -0.6140    0.7420 c         1 MOL      0.376126
    126 O19         7.6350   -0.1790    1.6490 o         1 MOL     -0.542623
    127 C41         7.6340   -3.0030   -0.0850 c3        1 MOL     -0.306208
    128 C42         7.4040   -3.0480   -1.5900 ca        1 MOL      0.096876
    129 C43         7.1460   -4.3020   -2.1770 ca        1 MOL     -0.110042
    130 C44         7.4070   -1.8590   -2.3610 ca        1 MOL     -0.110042
    131 C45         6.9500   -4.3370   -3.5900 ca        1 MOL     -0.300931
    132 C46         6.9540   -1.9270   -3.7110 ca        1 MOL     -0.300931
    133 C47         6.7820   -3.1620   -4.3240 ca        1 MOL      0.382569
    134 O20         6.2590   -3.0940   -5.5770 oh        1 MOL     -0.611199
    135 H56         5.1560   -3.2040   -0.6390 hn        1 MOL      0.139880
    136 H57         6.6000   -2.4530    1.7170 h1        1 MOL      0.046255
    137 H58         7.6300   -4.0190    0.3230 hc        1 MOL      0.104364
    138 H59         8.5660   -2.5180    0.2070 hc        1 MOL      0.104364
    139 H60         7.2130   -5.2240   -1.6190 ha        1 MOL      0.099371
    140 H61         7.5130   -0.9210   -1.8190 ha        1 MOL      0.099371
    141 H62         6.8580   -5.2900   -4.0840 ha        1 MOL      0.137617
    142 H63         6.5710   -1.0660   -4.2320 ha        1 MOL      0.137617
    143 H64         6.5290   -2.3570   -6.1280 ho        1 MOL      0.442285
    144 N13         6.3920    0.2570   -0.1510 n         1 MOL      0.060695
    145 C48         6.6390    1.6780    0.0280 c3        1 MOL     -0.231222
    146 C49         5.7490    2.3180    1.1010 c         1 MOL      0.426193
    147 O21         6.0630    3.3770    1.6230 o         1 MOL     -0.533526
    148 C50         6.3690    2.3370   -1.3580 c3        1 MOL     -0.001668
    149 C51         7.3930    2.0060   -2.4250 c3        1 MOL     -0.133161
    150 C52         8.8120    2.1820   -1.9060 c         1 MOL      0.696147
    151 O22         9.5710    1.1930   -1.8510 o         1 MOL     -0.726147
    152 O23         9.1840    3.3170   -1.5520 o         1 MOL     -0.726147
    153 H65         5.7510   -0.1090   -0.8350 hn        1 MOL      0.142396
    154 H66         7.6780    1.8420    0.3030 h1        1 MOL      0.205485
    155 H67         6.3620    3.4180   -1.1800 hc        1 MOL      0.012765
    156 H68         5.4180    2.0570   -1.8020 hc        1 MOL      0.012765
    157 H69         7.4330    2.5930   -3.3350 hc        1 MOL      0.010718
    158 H70         7.1600    0.9780   -2.6950 hc        1 MOL      0.010718
    159 N14         4.6950    1.7000    1.4640 n         1 MOL     -0.134075
    160 C53         3.7480    2.0940    2.5370 c3        1 MOL     -0.104939
    161 C54         4.2530    1.6360    3.8720 c         1 MOL      0.473984
    162 O24         4.2360    2.3560    4.8610 o         1 MOL     -0.555850
    163 C55         2.3040    1.6490    2.2550 c3        1 MOL      0.244089
    164 C56         1.7560    1.8650    0.8310 c3        1 MOL     -0.110049
    165 C57         0.4040    1.2290    0.4920 c         1 MOL      0.860199
    166 O25        -0.4740    1.8680   -0.1000 o         1 MOL     -0.753200
    167 O26         0.1210    0.0840    0.8680 o         1 MOL     -0.753200
    168 H71         4.6570    0.7760    1.0580 hn        1 MOL      0.043948
    169 H72         3.7870    3.1780    2.5150 h1        1 MOL      0.085021
    170 H73         1.6500    2.2430    2.8790 hc        1 MOL     -0.057669
    171 H74         2.1970    0.6420    2.6360 hc        1 MOL     -0.057669
    172 H75         2.4170    1.4720    0.0620 hc        1 MOL     -0.001724
    173 H76         1.7340    2.9540    0.7120 hc        1 MOL     -0.001724
    174 N15         4.7460    0.3720    3.8850 n         1 MOL     -0.042555
    175 C58         5.2480   -0.2660    5.0870 c3        1 MOL     -0.323360
    176 H77         5.9900   -1.0170    4.8150 h1        1 MOL      0.106551
    177 H78         5.7090    0.4830    5.7310 h1        1 MOL      0.106551
    178 H79         4.4230   -0.7440    5.6160 h1        1 MOL      0.106551
    179 H80         4.7360   -0.2050    3.0560 hn        1 MOL      0.071219
    180 Ca1        -2.4110    0.0390    0.2670 Ca        1 MOL      1.767062
    181 O27        -2.0690    0.6900    2.7830 oh        1 MOL     -0.920525
    182 O28        -1.2080   -1.3750   -1.8600 oh        1 MOL     -0.920525
    183 H81        -2.3750    0.1020    3.4770 ho        1 MOL      0.431878
    184 H82        -1.8250   -2.0880   -1.9950 ho        1 MOL      0.431878
    185 H83        -1.6110    1.3940    3.2460 ho        1 MOL      0.431878
    186 H84        -1.2130   -0.8920   -2.6910 ho        1 MOL      0.431878
    187 O29        -4.4880   -0.6590    1.9050 oh        1 MOL     -0.920525
    188 H85        -5.3150   -0.1700    2.0020 ho        1 MOL      0.431878
    189 H86        -4.2850   -0.9590    2.7920 ho        1 MOL      0.431878
@<TRIPOS>BOND
     1    1    2 1   
     2    1    4 1   
     3    1    5 1   
     4    1    6 1   
     5    2    3 2   
     6    2    7 1   
     7    7    8 1   
     8    7   15 1   
     9    8    9 1   
    10    8   11 1   
    11    8   16 1   
    12    9   10 2   
    13    9   19 1   
    14   11   12 1   
    15   11   17 1   
    16   11   18 1   
    17   12   13 1   
    18   12   14 1   
    19   19   20 1   
    20   19   27 1   
    21   20   21 1   
    22   20   23 1   
    23   20   28 1   
    24   21   22 2   
    25   21   38 1   
    26   23   24 1   
    27   23   25 1   
    28   23   29 1   
    29   24   26 1   
    30   24   30 1   
    31   24   31 1   
    32   25   32 1   
    33   25   33 1   
    34   25   34 1   
    35   26   35 1   
    36   26   36 1   
    37   26   37 1   
    38   38   39 1   
    39   38   46 1   
    40   39   40 1   
    41   39   42 1   
    42   39   47 1   
    43   40   41 2   
    44   40   50 1   
    45   42   43 1   
    46   42   48 1   
    47   42   49 1   
    48   43   44 1   
    49   43   45 1   
    50   50   51 1   
    51   50   54 1   
    52   51   52 1   
    53   51   55 1   
    54   51   56 1   
    55   52   53 2   
    56   52   57 1   
    57   57   58 1   
    58   57   65 1   
    59   58   59 1   
    60   58   61 1   
    61   58   66 1   
    62   59   60 2   
    63   59   69 1   
    64   61   62 1   
    65   61   67 1   
    66   61   68 1   
    67   62   63 1   
    68   62   64 1   
    69   69   70 1   
    70   69   73 1   
    71   70   71 1   
    72   70   74 1   
    73   70   75 1   
    74   71   72 2   
    75   71   76 1   
    76   76   77 1   
    77   76   85 1   
    78   77   78 1   
    79   77   80 1   
    80   77   86 1   
    81   78   79 2   
    82   78   93 1   
    83   80   81 1   
    84   80   87 1   
    85   80   88 1   
    86   81   82 1   
    87   81   89 1   
    88   81   90 1   
    89   82   83 1   
    90   82   84 2   
    91   83   91 1   
    92   83   92 1   
    93   93   94 1   
    94   93  100 1   
    95   94   95 1   
    96   94   97 1   
    97   94  101 1   
    98   95   96 2   
    99   95  109 1   
   100   97   98 1   
   101   97   99 1   
   102   97  102 1   
   103   98  103 1   
   104   98  104 1   
   105   98  105 1   
   106   99  106 1   
   107   99  107 1   
   108   99  108 1   
   109  109  110 1   
   110  109  117 1   
   111  110  111 1   
   112  110  113 1   
   113  110  118 1   
   114  111  112 2   
   115  111  123 1   
   116  113  114 1   
   117  113  119 1   
   118  113  120 1   
   119  114  115 1   
   120  114  116 2   
   121  115  121 1   
   122  115  122 1   
   123  123  124 1   
   124  123  135 1   
   125  124  125 1   
   126  124  127 1   
   127  124  136 1   
   128  125  126 2   
   129  125  144 1   
   130  127  128 1   
   131  127  137 1   
   132  127  138 1   
   133  128  129 ar  
   134  128  130 ar  
   135  129  131 ar  
   136  129  139 1   
   137  130  132 ar  
   138  130  140 1   
   139  131  133 ar  
   140  131  141 1   
   141  132  133 ar  
   142  132  142 1   
   143  133  134 1   
   144  134  143 1   
   145  144  145 1   
   146  144  153 1   
   147  145  146 1   
   148  145  148 1   
   149  145  154 1   
   150  146  147 2   
   151  146  159 1   
   152  148  149 1   
   153  148  155 1   
   154  148  156 1   
   155  149  150 1   
   156  149  157 1   
   157  149  158 1   
   158  150  151 1   
   159  150  152 1   
   160  159  160 1   
   161  159  168 1   
   162  160  161 1   
   163  160  163 1   
   164  160  169 1   
   165  161  162 2   
   166  161  174 1   
   167  163  164 1   
   168  163  170 1   
   169  163  171 1   
   170  164  165 1   
   171  164  172 1   
   172  164  173 1   
   173  165  166 1   
   174  165  167 1   
   175  174  175 1   
   176  174  179 1   
   177  175  176 1   
   178  175  177 1   
   179  175  178 1   
   180  181  183 1   
   181  181  185 1   
   182  182  184 1   
   183  182  186 1   
   184  187  188 1   
   185  187  189 1   
@<TRIPOS>SUBSTRUCTURE
     1 MOL         1 TEMP              0 ****  ****    0 ROOT
