@<TRIPOS>MOLECULE
MOL
  183   181     1     0     0
SMALL
resp


@<TRIPOS>ATOM
      1 C1         -0.7790    1.4300    6.4730 c3        1 MOL     -0.219553
      2 C2         -1.0860    1.6350    4.9720 c         1 MOL      0.801312
      3 O1         -0.2630    2.0660    4.2050 o         1 MOL     -0.598621
      4 H1         -0.9470    0.3860    6.7380 hc        1 MOL      0.042816
      5 H2          0.2610    1.6910    6.6710 hc        1 MOL      0.042816
      6 H3         -1.4340    2.0650    7.0690 hc        1 MOL      0.042816
      7 N1         -2.3220    1.1890    4.6050 n         1 MOL     -0.767487
      8 C3         -2.8000    1.3140    3.2550 c3        1 MOL      0.384036
      9 C4         -3.0720    2.7690    2.9440 c         1 MOL      0.407499
     10 O2         -3.6650    3.4730    3.7730 o         1 MOL     -0.573161
     11 C5         -4.1820    0.5750    3.0680 c3        1 MOL     -0.002280
     12 C6         -4.5300    0.2720    1.6050 c         1 MOL      0.580162
     13 O3         -5.6590   -0.2740    1.2630 o         1 MOL     -0.632290
     14 O4         -3.6920    0.6810    0.7700 o         1 MOL     -0.632290
     15 H4         -2.8340    0.6960    5.3180 hn        1 MOL      0.329820
     16 H5         -2.0050    0.8890    2.6580 h1        1 MOL     -0.035387
     17 H6         -4.9960    0.9760    3.6670 hc        1 MOL      0.000775
     18 H7         -4.0260   -0.4270    3.4780 hc        1 MOL      0.000775
     19 N2         -2.7750    3.2050    1.6860 n         1 MOL     -0.133896
     20 C7         -2.7720    4.6170    1.2270 c3        1 MOL     -0.011813
     21 C8         -3.6630    4.8410    0.0000 c         1 MOL      0.382827
     22 O5         -4.3330    5.9140   -0.0990 o         1 MOL     -0.569900
     23 C9         -1.3170    5.1160    0.9540 c3        1 MOL      0.134950
     24 C10        -0.4370    4.9020    2.2090 c3        1 MOL      0.095077
     25 C11        -1.3850    6.5970    0.4850 c3        1 MOL     -0.338559
     26 C12         0.9670    5.5640    2.0850 c3        1 MOL     -0.241716
     27 H8         -2.4550    2.5780    0.9560 hn        1 MOL      0.094119
     28 H9         -3.2050    5.3430    1.9190 h1        1 MOL      0.066309
     29 H10        -0.9200    4.5260    0.1250 hc        1 MOL      0.022488
     30 H11        -0.2750    3.8380    2.3930 hc        1 MOL     -0.002155
     31 H12        -0.9480    5.2840    3.0900 hc        1 MOL     -0.002155
     32 H13        -1.7830    7.2920    1.2170 hc        1 MOL      0.079435
     33 H14        -0.4290    6.9680    0.1110 hc        1 MOL      0.079435
     34 H15        -1.9400    6.6020   -0.4510 hc        1 MOL      0.079435
     35 H16         0.8650    6.6460    1.9350 hc        1 MOL      0.045790
     36 H17         1.5540    5.4000    2.9890 hc        1 MOL      0.045790
     37 H18         1.6230    5.0390    1.4000 hc        1 MOL      0.045790
     38 N3         -3.8120    3.8930   -0.9620 n         1 MOL     -0.194787
     39 C13        -4.6920    4.0360   -2.1440 c3        1 MOL      0.093652
     40 C14        -5.9510    3.1720   -1.8460 c         1 MOL      0.395525
     41 O6         -6.9250    3.1830   -2.5830 o         1 MOL     -0.513878
     42 C15        -3.9870    3.5770   -3.4310 c3        1 MOL     -0.167862
     43 C16        -3.2530    2.2730   -3.5540 c         1 MOL      0.762272
     44 O7         -2.8020    1.9160   -4.6580 o         1 MOL     -0.707371
     45 O8         -3.2210    1.4360   -2.6650 o         1 MOL     -0.707371
     46 H19        -3.3970    2.9860   -0.8220 hn        1 MOL      0.110139
     47 H20        -5.1080    5.0180   -2.3490 h1        1 MOL      0.080851
     48 H21        -3.3630    4.3980   -3.7630 hc        1 MOL      0.028899
     49 H22        -4.7600    3.5430   -4.2040 hc        1 MOL      0.028899
     50 N4         -6.0390    2.5080   -0.6910 n         1 MOL     -0.176535
     51 C17        -7.3350    1.9070   -0.2620 c3        1 MOL     -0.055016
     52 C18        -7.8210    0.7230   -1.1150 c         1 MOL      0.487559
     53 O9         -8.8920    0.7520   -1.7460 o         1 MOL     -0.589655
     54 H23        -5.1740    2.4250   -0.1660 hn        1 MOL      0.131399
     55 H24        -8.0930    2.6750   -0.1770 h1        1 MOL      0.051394
     56 H25        -7.1370    1.4850    0.7220 h1        1 MOL      0.051394
     57 N5         -7.0080   -0.3130   -1.2150 n         1 MOL     -0.113185
     58 C19        -7.2040   -1.5620   -2.0500 c3        1 MOL     -0.087447
     59 C20        -7.2590   -2.9460   -1.2880 c         1 MOL      0.374209
     60 O10        -7.4200   -4.0490   -1.8030 o         1 MOL     -0.509843
     61 C21        -6.0080   -1.7390   -2.9880 c3        1 MOL     -0.113174
     62 C22        -4.6590   -1.9680   -2.3840 c         1 MOL      0.728752
     63 O11        -3.6400   -1.8550   -3.0960 o         1 MOL     -0.747983
     64 O12        -4.5340   -1.9980   -1.1790 o         1 MOL     -0.747983
     65 H26        -6.3040   -0.4010   -0.4910 hn        1 MOL      0.031972
     66 H27        -8.1190   -1.4890   -2.6380 h1        1 MOL      0.108707
     67 H28        -6.0220   -0.7740   -3.5090 hc        1 MOL      0.058728
     68 H29        -6.1950   -2.4830   -3.7540 hc        1 MOL      0.058728
     69 N6         -7.0680   -2.7960    0.0350 n         1 MOL     -0.229296
     70 C23        -7.0790   -3.8350    1.0440 c3        1 MOL     -0.232551
     71 C24        -5.7050   -4.5410    1.2590 c         1 MOL      0.580934
     72 O13        -5.7390   -5.6210    1.8760 o         1 MOL     -0.591231
     73 H30        -6.8790   -1.8520    0.3330 hn        1 MOL      0.237155
     74 H31        -7.7860   -4.6080    0.7670 h1        1 MOL      0.110010
     75 H32        -7.3890   -3.3480    1.9700 h1        1 MOL      0.110010
     76 N7         -4.5190   -3.9740    0.8110 n         1 MOL     -0.352250
     77 C25        -3.1600   -4.5360    1.0340 c3        1 MOL     -0.007075
     78 C26        -2.2030   -3.4150    1.4170 c         1 MOL      0.567962
     79 O14        -2.4890   -2.2290    1.3010 o         1 MOL     -0.608911
     80 C27        -2.6890   -5.3950   -0.1610 c3        1 MOL      0.148899
     81 C28        -2.7050   -4.8140   -1.5680 c3        1 MOL     -0.137200
     82 C29        -1.4760   -3.9590   -1.9140 c         1 MOL      0.608397
     83 N8         -0.7410   -4.2140   -2.9580 n         1 MOL     -0.739003
     84 O15        -1.1740   -3.0060   -1.2250 o         1 MOL     -0.572465
     85 H33        -4.5460   -3.1380    0.2540 hn        1 MOL      0.357629
     86 H34        -3.1460   -5.2180    1.8870 h1        1 MOL      0.035569
     87 H35        -3.3070   -6.2890   -0.1940 hc        1 MOL     -0.027665
     88 H36        -1.6690   -5.7510   -0.0230 hc        1 MOL     -0.027665
     89 H37        -3.6100   -4.2440   -1.7750 hc        1 MOL      0.035391
     90 H38        -2.6690   -5.7060   -2.1970 hc        1 MOL      0.035391
     91 H39        -1.1090   -4.9410   -3.5550 hn        1 MOL      0.354260
     92 H40        -0.2280   -3.4090   -3.3090 hn        1 MOL      0.354260
     93 N9         -0.9470   -3.7670    1.7740 n         1 MOL     -0.403886
     94 C30         0.1590   -2.8690    2.0030 c3        1 MOL     -0.218829
     95 C31         1.3990   -3.3560    1.2130 c         1 MOL      0.531905
     96 O16         2.0040   -4.4130    1.4500 o         1 MOL     -0.608735
     97 C32         0.4420   -2.7810    3.5440 c3        1 MOL      0.288649
     98 C33         1.7960   -2.2730    4.0320 c3        1 MOL     -0.344307
     99 C34        -0.6660   -1.9970    4.2240 c3        1 MOL     -0.344307
    100 H41        -0.7530   -4.7580    1.8390 hn        1 MOL      0.251702
    101 H42        -0.1990   -1.9040    1.6480 h1        1 MOL      0.220410
    102 H43         0.3740   -3.7530    4.0320 hc        1 MOL     -0.011513
    103 H44         1.7600   -2.1320    5.1180 hc        1 MOL      0.072812
    104 H45         2.5010   -3.0160    3.6520 hc        1 MOL      0.072812
    105 H46         2.0840   -1.3270    3.5850 hc        1 MOL      0.072812
    106 H47        -0.6540   -0.9450    3.9530 hc        1 MOL      0.072812
    107 H48        -1.6180   -2.4580    3.9620 hc        1 MOL      0.072812
    108 H49        -0.5820   -2.2740    5.2860 hc        1 MOL      0.072812
    109 N10         1.7950   -2.5940    0.2470 n         1 MOL     -0.022544
    110 C35         2.9660   -2.9010   -0.6050 c3        1 MOL     -0.088094
    111 C36         4.2470   -2.2080   -0.1200 c         1 MOL      0.391781
    112 O17         4.2350   -1.4260    0.8210 o         1 MOL     -0.259109
    113 C37         2.5250   -2.5450   -2.1200 c3        1 MOL     -0.235482
    114 C38         2.9070   -1.1730   -2.4790 c         1 MOL      0.622035
    115 N11         2.0840   -0.2270   -2.1850 n         1 MOL     -0.554433
    116 O18         3.9360   -0.9380   -3.1150 o         1 MOL     -0.593973
    117 H50         1.1430   -1.8480    0.0590 hn        1 MOL      0.015232
    118 H51         3.1620   -3.9670   -0.6230 h1        1 MOL      0.086151
    119 H52         1.4560   -2.7280   -2.1760 hc        1 MOL      0.095016
    120 H53         3.0100   -3.1390   -2.8960 hc        1 MOL      0.095016
    121 H54         1.2900   -0.4740   -1.6010 hn        1 MOL      0.277851
    122 H55         2.3670    0.7120   -2.4200 hn        1 MOL      0.277851
    123 N12         5.4090   -2.4880   -0.8210 n         1 MOL     -0.504692
    124 C39         6.6990   -1.9210   -0.4680 c3        1 MOL      0.324860
    125 C40         6.6730   -0.3760   -0.2270 c         1 MOL      0.469298
    126 O19         7.1540    0.1510    0.8090 o         1 MOL     -0.528036
    127 C41         7.8090   -2.3840   -1.4180 c3        1 MOL     -0.452026
    128 C42         9.2200   -1.7880   -1.0910 ca        1 MOL      0.377748
    129 C43         9.7570   -2.1960    0.1330 ca        1 MOL     -0.445680
    130 C44         9.9620   -0.9930   -1.9750 ca        1 MOL     -0.445680
    131 C45        10.9460   -1.6740    0.5500 ca        1 MOL     -0.007563
    132 C46        11.1670   -0.4640   -1.5120 ca        1 MOL     -0.007563
    133 C47        11.7160   -0.8300   -0.3020 ca        1 MOL      0.139178
    134 O20        12.9130   -0.3240    0.0410 oh        1 MOL     -0.492225
    135 H56         5.3340   -3.2860   -1.4340 hn        1 MOL      0.299563
    136 H57         6.8750   -2.2920    0.5390 h1        1 MOL     -0.006922
    137 H58         7.5880   -2.1840   -2.4610 hc        1 MOL      0.123632
    138 H59         7.9480   -3.4510   -1.2240 hc        1 MOL      0.123632
    139 H60         9.1600   -2.7960    0.7950 ha        1 MOL      0.207161
    140 H61         9.4830   -0.6280   -2.8670 ha        1 MOL      0.207161
    141 H62        11.2760   -2.0420    1.5180 ha        1 MOL      0.088534
    142 H63        11.6930    0.1760   -2.2130 ha        1 MOL      0.088534
    143 H64        13.3430    0.1900   -0.6500 ho        1 MOL      0.370843
    144 N13         6.0330    0.3920   -1.1770 n         1 MOL     -0.319132
    145 C48         5.9900    1.8490   -1.0490 c3        1 MOL     -0.030925
    146 C49         5.2370    2.4080    0.1860 c         1 MOL      0.505497
    147 O21         5.5480    3.5550    0.5830 o         1 MOL     -0.560785
    148 C50         5.9130    2.7360   -2.2610 c3        1 MOL      0.085141
    149 C51         4.7190    2.4650   -3.1820 c3        1 MOL     -0.039679
    150 C52         4.9770    2.8290   -4.6300 c         1 MOL      0.624645
    151 O22         5.0850    1.8750   -5.4370 o         1 MOL     -0.729011
    152 O23         5.0970    4.0710   -4.8790 o         1 MOL     -0.729011
    153 H65         5.6380   -0.0640   -1.9900 hn        1 MOL      0.239847
    154 H66         7.0340    2.0860   -0.8510 h1        1 MOL      0.058967
    155 H67         6.8160    2.5870   -2.8480 hc        1 MOL     -0.013820
    156 H68         5.9740    3.7600   -1.8920 hc        1 MOL     -0.013820
    157 H69         3.9360    3.1020   -2.7780 hc        1 MOL     -0.008345
    158 H70         4.3270    1.4540   -3.1590 hc        1 MOL     -0.008345
    159 N14         4.3990    1.5830    0.7570 n         1 MOL     -0.329280
    160 C53         3.4900    1.9310    1.8920 c3        1 MOL     -0.033860
    161 C54         4.1500    1.3770    3.1740 c         1 MOL      0.489921
    162 O24         4.0040    2.0070    4.1750 o         1 MOL     -0.568499
    163 C55         2.1030    1.2430    1.7050 c3        1 MOL      0.112049
    164 C56         1.3910    1.8150    0.4990 c3        1 MOL      0.239395
    165 C57         0.2460    0.9260    0.0610 c         1 MOL      0.518844
    166 O25        -0.8020    1.5120   -0.2280 o         1 MOL     -0.661782
    167 O26         0.3200   -0.3420   -0.0570 o         1 MOL     -0.661782
    168 H71         4.2820    0.6700    0.3390 hn        1 MOL      0.135289
    169 H72         3.4380    3.0160    2.0300 h1        1 MOL      0.102607
    170 H73         1.5560    1.4240    2.6330 hc        1 MOL      0.007645
    171 H74         2.2790    0.1700    1.6640 hc        1 MOL      0.007645
    172 H75         2.0690    1.8900   -0.3510 hc        1 MOL     -0.062831
    173 H76         1.0530    2.8430    0.6310 hc        1 MOL     -0.062831
    174 N15         4.7080    0.1260    3.1220 n         1 MOL     -0.043478
    175 C58         5.5640   -0.5300    4.1630 c3        1 MOL     -0.277997
    176 H77         5.3200   -1.5900    4.2180 h1        1 MOL      0.093061
    177 H78         6.6140   -0.4130    3.8960 h1        1 MOL      0.093061
    178 H79         5.3800   -0.0640    5.1310 h1        1 MOL      0.093061
    179 H80         4.5980   -0.3090    2.2150 hn        1 MOL      0.017611
    180 Ca1        -2.3450   -0.5260   -1.1250 Ca        1 MOL      1.751518
    181 O27        -0.8120    0.2410   -3.2730 oh        1 MOL     -0.859611
    182 H81         0.0270    0.7210   -3.2620 ho        1 MOL      0.399730
    183 H82        -1.3820    0.7760   -3.8180 ho        1 MOL      0.399730
@<TRIPOS>BOND
     1    1    2 1   
     2    1    4 1   
     3    1    5 1   
     4    1    6 1   
     5    2    3 2   
     6    2    7 1   
     7    7    8 1   
     8    7   15 1   
     9    8    9 1   
    10    8   11 1   
    11    8   16 1   
    12    9   10 2   
    13    9   19 1   
    14   11   12 1   
    15   11   17 1   
    16   11   18 1   
    17   12   13 1   
    18   12   14 1   
    19   19   20 1   
    20   19   27 1   
    21   20   21 1   
    22   20   23 1   
    23   20   28 1   
    24   21   22 2   
    25   21   38 1   
    26   23   24 1   
    27   23   25 1   
    28   23   29 1   
    29   24   26 1   
    30   24   30 1   
    31   24   31 1   
    32   25   32 1   
    33   25   33 1   
    34   25   34 1   
    35   26   35 1   
    36   26   36 1   
    37   26   37 1   
    38   38   39 1   
    39   38   46 1   
    40   39   40 1   
    41   39   42 1   
    42   39   47 1   
    43   40   41 2   
    44   40   50 1   
    45   42   43 1   
    46   42   48 1   
    47   42   49 1   
    48   43   44 1   
    49   43   45 1   
    50   50   51 1   
    51   50   54 1   
    52   51   52 1   
    53   51   55 1   
    54   51   56 1   
    55   52   53 2   
    56   52   57 1   
    57   57   58 1   
    58   57   65 1   
    59   58   59 1   
    60   58   61 1   
    61   58   66 1   
    62   59   60 2   
    63   59   69 1   
    64   61   62 1   
    65   61   67 1   
    66   61   68 1   
    67   62   63 1   
    68   62   64 1   
    69   69   70 1   
    70   69   73 1   
    71   70   71 1   
    72   70   74 1   
    73   70   75 1   
    74   71   72 2   
    75   71   76 1   
    76   76   77 1   
    77   76   85 1   
    78   77   78 1   
    79   77   80 1   
    80   77   86 1   
    81   78   79 2   
    82   78   93 1   
    83   80   81 1   
    84   80   87 1   
    85   80   88 1   
    86   81   82 1   
    87   81   89 1   
    88   81   90 1   
    89   82   83 1   
    90   82   84 2   
    91   83   91 1   
    92   83   92 1   
    93   93   94 1   
    94   93  100 1   
    95   94   95 1   
    96   94   97 1   
    97   94  101 1   
    98   95   96 2   
    99   95  109 1   
   100   97   98 1   
   101   97   99 1   
   102   97  102 1   
   103   98  103 1   
   104   98  104 1   
   105   98  105 1   
   106   99  106 1   
   107   99  107 1   
   108   99  108 1   
   109  109  110 1   
   110  109  117 1   
   111  110  111 1   
   112  110  113 1   
   113  110  118 1   
   114  111  112 2   
   115  111  123 1   
   116  113  114 1   
   117  113  119 1   
   118  113  120 1   
   119  114  115 1   
   120  114  116 2   
   121  115  121 1   
   122  115  122 1   
   123  123  124 1   
   124  123  135 1   
   125  124  125 1   
   126  124  127 1   
   127  124  136 1   
   128  125  126 2   
   129  125  144 1   
   130  127  128 1   
   131  127  137 1   
   132  127  138 1   
   133  128  129 ar  
   134  128  130 ar  
   135  129  131 ar  
   136  129  139 1   
   137  130  132 ar  
   138  130  140 1   
   139  131  133 ar  
   140  131  141 1   
   141  132  133 ar  
   142  132  142 1   
   143  133  134 1   
   144  134  143 1   
   145  144  145 1   
   146  144  153 1   
   147  145  146 1   
   148  145  148 1   
   149  145  154 1   
   150  146  147 2   
   151  146  159 1   
   152  148  149 1   
   153  148  155 1   
   154  148  156 1   
   155  149  150 1   
   156  149  157 1   
   157  149  158 1   
   158  150  151 1   
   159  150  152 1   
   160  159  160 1   
   161  159  168 1   
   162  160  161 1   
   163  160  163 1   
   164  160  169 1   
   165  161  162 2   
   166  161  174 1   
   167  163  164 1   
   168  163  170 1   
   169  163  171 1   
   170  164  165 1   
   171  164  172 1   
   172  164  173 1   
   173  165  166 1   
   174  165  167 1   
   175  174  175 1   
   176  174  179 1   
   177  175  176 1   
   178  175  177 1   
   179  175  178 1   
   180  181  182 1   
   181  181  183 1   
@<TRIPOS>SUBSTRUCTURE
     1 MOL         1 TEMP              0 ****  ****    0 ROOT
