@<TRIPOS>MOLECULE
MOL
  189   185     1     0     0
SMALL
resp


@<TRIPOS>ATOM
      1 C1          1.0680    1.9700    6.1400 c3        1 MOL     -0.212942
      2 C2          0.4860    2.0200    4.6750 c         1 MOL      0.713742
      3 O1          1.2940    2.2530    3.7400 o         1 MOL     -0.615090
      4 H1          0.2570    1.7970    6.8470 hc        1 MOL      0.052713
      5 H2          1.7950    1.1620    6.2160 hc        1 MOL      0.052713
      6 H3          1.5530    2.9180    6.3710 hc        1 MOL      0.052713
      7 N1         -0.8960    1.8820    4.4850 n         1 MOL     -0.627669
      8 C3         -1.5380    1.9280    3.1030 c3        1 MOL      0.051907
      9 C4         -1.9820    3.3340    2.6450 c         1 MOL      0.622922
     10 O2         -2.4190    4.0980    3.4660 o         1 MOL     -0.566914
     11 C5         -2.6970    0.9560    3.2270 c3        1 MOL     -0.295744
     12 C6         -3.6430    1.0950    2.0710 c         1 MOL      0.691630
     13 O3         -3.2470    0.7980    0.9150 o         1 MOL     -0.638405
     14 O4         -4.7810    1.5620    2.2970 o         1 MOL     -0.638405
     15 H4         -1.5260    1.8820    5.2770 hn        1 MOL      0.352938
     16 H5         -0.7990    1.6060    2.3670 h1        1 MOL      0.093439
     17 H6         -3.2980    1.2060    4.0990 hc        1 MOL      0.080389
     18 H7         -2.3750   -0.0820    3.2990 hc        1 MOL      0.080389
     19 N2         -1.6560    3.6700    1.4060 n         1 MOL     -0.338116
     20 C7         -1.9140    4.9750    0.6970 c3        1 MOL      0.074545
     21 C8         -2.9600    5.0140   -0.4300 c         1 MOL      0.459606
     22 O5         -3.1150    6.0700   -1.0610 o         1 MOL     -0.571586
     23 C9         -0.5880    5.4150    0.2330 c3        1 MOL      0.082521
     24 C10         0.4050    5.8680    1.3550 c3        1 MOL      0.020434
     25 C11         0.2130    7.2750    1.8900 c3        1 MOL     -0.499804
     26 C12         0.6050    8.2390    0.7800 c3        1 MOL      0.266229
     27 N3          0.5560    9.6210    1.3150 n4        1 MOL     -0.547969
     28 H8         -1.3090    2.9270    0.8250 hn        1 MOL      0.112278
     29 H9         -2.2890    5.6730    1.4420 h1        1 MOL      0.028394
     30 H10        -0.7340    6.2430   -0.4650 hc        1 MOL     -0.004527
     31 H11        -0.1150    4.6440   -0.3810 hc        1 MOL     -0.004527
     32 H12         1.3760    5.7500    0.8710 hc        1 MOL      0.061116
     33 H13         0.3850    5.1900    2.2000 hc        1 MOL      0.061116
     34 H14         0.8030    7.4090    2.8020 hc        1 MOL      0.167119
     35 H15        -0.8050    7.3980    2.2570 hc        1 MOL      0.167119
     36 H16        -0.0190    8.1360   -0.1080 hx        1 MOL      0.042805
     37 H17         1.5750    8.0450    0.3340 hx        1 MOL      0.042805
     38 H18         1.1490    9.6770    2.1440 hn        1 MOL      0.370372
     39 H19         0.8820   10.3310    0.6780 hn        1 MOL      0.370372
     40 H20        -0.4170    9.8610    1.4330 hn        1 MOL      0.370372
     41 N4         -3.5960    3.9130   -0.7450 n         1 MOL     -0.211338
     42 C13        -4.5880    3.7770   -1.8280 c3        1 MOL     -0.081542
     43 C14        -5.9100    3.0210   -1.6960 c         1 MOL      0.531359
     44 O6         -6.7600    3.1440   -2.5540 o         1 MOL     -0.529151
     45 C15        -3.9560    3.4380   -3.1730 c3        1 MOL     -0.108960
     46 C16        -3.1560    2.1060   -3.1840 c         1 MOL      0.796011
     47 O7         -2.3870    1.8260   -4.1020 o         1 MOL     -0.739542
     48 O8         -3.2910    1.3220   -2.2620 o         1 MOL     -0.739542
     49 H21        -3.4150    3.0560   -0.2420 hn        1 MOL      0.182508
     50 H22        -4.9650    4.7980   -1.9460 h1        1 MOL      0.093310
     51 H23        -3.2650    4.2370   -3.4490 hc        1 MOL      0.030219
     52 H24        -4.6730    3.4090   -3.9890 hc        1 MOL      0.030219
     53 N5         -6.1840    2.4080   -0.5250 n         1 MOL     -0.336277
     54 C17        -7.4460    1.7960   -0.1870 c3        1 MOL     -0.065937
     55 C18        -7.7750    0.4280   -0.8620 c         1 MOL      0.352627
     56 O9         -8.9230   -0.0140   -0.9520 o         1 MOL     -0.555118
     57 H25        -5.4130    2.3510    0.1240 hn        1 MOL      0.196830
     58 H26        -8.2970    2.4380   -0.4080 h1        1 MOL      0.098222
     59 H27        -7.4680    1.8280    0.9010 h1        1 MOL      0.098222
     60 N6         -6.7960   -0.1740   -1.5500 n         1 MOL      0.001501
     61 C19        -6.9560   -1.4360   -2.3260 c3        1 MOL     -0.200014
     62 C20        -7.1250   -2.7260   -1.5100 c         1 MOL      0.498658
     63 O10        -7.4330   -3.7410   -2.0760 o         1 MOL     -0.534006
     64 C21        -5.7350   -1.6320   -3.2570 c3        1 MOL     -0.222451
     65 C22        -4.4090   -1.5650   -2.5710 c         1 MOL      0.938489
     66 O11        -3.3670   -1.7730   -3.2700 o         1 MOL     -0.777599
     67 O12        -4.3270   -1.4410   -1.2970 o         1 MOL     -0.777599
     68 H28        -5.9360    0.3520   -1.6160 hn        1 MOL      0.099734
     69 H29        -7.7750   -1.2860   -3.0310 h1        1 MOL      0.148128
     70 H30        -5.7080   -0.8560   -4.0300 hc        1 MOL      0.074504
     71 H31        -5.7860   -2.5660   -3.8090 hc        1 MOL      0.074504
     72 N7         -6.9540   -2.7510   -0.1590 n         1 MOL     -0.215447
     73 C23        -6.9710   -3.8660    0.8300 c3        1 MOL     -0.299698
     74 C24        -5.5540   -4.4540    1.0970 c         1 MOL      0.669223
     75 O13        -5.4130   -5.4110    1.8070 o         1 MOL     -0.621221
     76 H32        -6.5250   -1.8720    0.1210 hn        1 MOL      0.200246
     77 H33        -7.6810   -4.6200    0.4920 h1        1 MOL      0.146476
     78 H34        -7.1700   -3.4490    1.8170 h1        1 MOL      0.146476
     79 N8         -4.4310   -3.9600    0.5410 n         1 MOL     -0.273346
     80 C25        -3.0870   -4.5190    0.8150 c3        1 MOL     -0.132050
     81 C26        -1.9440   -3.5000    1.1410 c         1 MOL      0.668077
     82 O14        -2.0530   -2.3200    0.9190 o         1 MOL     -0.639068
     83 C27        -2.7260   -5.2440   -0.4750 c3        1 MOL      0.359349
     84 C28        -3.1870   -6.6930   -0.5200 c3        1 MOL     -0.546240
     85 O15        -3.2170   -4.5520   -1.5980 oh        1 MOL     -0.644535
     86 H35        -4.5900   -3.2540   -0.1670 hn        1 MOL      0.187645
     87 H36        -3.0660   -5.2710    1.6020 h1        1 MOL      0.119216
     88 H37        -1.6540   -5.3740   -0.5300 h1        1 MOL      0.023088
     89 H38        -3.8500   -5.0970   -2.0790 ho        1 MOL      0.445241
     90 H39        -2.4670   -7.2490    0.0810 hc        1 MOL      0.146129
     91 H40        -4.1960   -6.6640   -0.1030 hc        1 MOL      0.146129
     92 H41        -3.2570   -7.0630   -1.5460 hc        1 MOL      0.146129
     93 N9         -0.7860   -3.9200    1.6520 n         1 MOL     -0.570845
     94 C29         0.4220   -3.1500    1.7880 c3        1 MOL      0.018028
     95 C30         1.4870   -3.6640    0.8490 c         1 MOL      0.354696
     96 O16         1.9150   -4.8470    0.9390 o         1 MOL     -0.549165
     97 C31         0.9680   -3.0510    3.2440 c3        1 MOL      0.364701
     98 C32        -0.1690   -2.9930    4.2810 c3        1 MOL      0.091012
     99 C33         1.8490   -1.8540    3.2460 c3        1 MOL     -0.799402
    100 C34         0.1910   -3.1190    5.8580 c3        1 MOL     -0.222393
    101 H42        -0.8000   -4.8180    2.1150 hn        1 MOL      0.285594
    102 H43         0.2180   -2.1400    1.4190 h1        1 MOL      0.091439
    103 H44         1.5640   -3.9310    3.4880 hc        1 MOL     -0.043233
    104 H45        -0.8800   -3.8060    4.1410 hc        1 MOL      0.003132
    105 H46        -0.7150   -2.0650    4.1000 hc        1 MOL      0.003132
    106 H47         2.7870   -1.9290    2.6930 hc        1 MOL      0.157962
    107 H48         1.3100   -0.9400    3.0170 hc        1 MOL      0.157962
    108 H49         2.2650   -1.6370    4.2280 hc        1 MOL      0.157962
    109 H50        -0.7210   -3.0290    6.4430 hc        1 MOL      0.049724
    110 H51         0.6200   -4.0840    6.1080 hc        1 MOL      0.049724
    111 H52         0.8610   -2.3180    6.1760 hc        1 MOL      0.049724
    112 N10         2.0090   -2.7660    0.0250 n         1 MOL     -0.085870
    113 C35         3.1940   -3.0440   -0.9130 c3        1 MOL     -0.338251
    114 C36         4.4850   -2.9090   -0.1370 c         1 MOL      0.620566
    115 O17         4.5920   -2.2140    0.8000 o         1 MOL     -0.362182
    116 C37         3.2210   -2.1160   -2.1660 c3        1 MOL      0.301177
    117 C38         2.1540   -2.4450   -3.1390 c3        1 MOL     -0.691683
    118 O18         3.2300   -0.7480   -1.7750 oh        1 MOL     -0.488982
    119 H53         1.5190   -1.8820   -0.0230 hn        1 MOL      0.376247
    120 H54         3.1200   -4.0850   -1.2340 h1        1 MOL      0.145526
    121 H55         4.1910   -2.1550   -2.6690 h1        1 MOL      0.032150
    122 H56         2.4700   -0.6140   -1.2050 ho        1 MOL      0.365444
    123 H57         1.2780   -2.0600   -2.6280 hc        1 MOL      0.187462
    124 H58         2.3760   -2.0480   -4.1320 hc        1 MOL      0.187462
    125 H59         2.1820   -3.5270   -3.2000 hc        1 MOL      0.187462
    126 N11         5.5090   -3.6120   -0.6570 n         1 MOL     -0.493011
    127 C39         6.9410   -3.4280   -0.2330 c3        1 MOL     -0.079840
    128 C40         7.3930   -1.9500   -0.2920 c         1 MOL      0.343602
    129 O19         8.1880   -1.5890    0.5010 o         1 MOL     -0.453182
    130 C41         7.7560   -4.2970   -1.1280 c3        1 MOL      0.350025
    131 C42         9.2240   -4.2990   -0.7610 c3        1 MOL     -0.374251
    132 O20         7.3680   -5.6250   -0.9940 oh        1 MOL     -0.544672
    133 H60         5.3170   -4.2690   -1.4060 hn        1 MOL      0.252831
    134 H61         6.9960   -3.8020    0.7940 h1        1 MOL      0.150438
    135 H62         7.7850   -3.9720   -2.1690 h1        1 MOL     -0.020700
    136 H63         6.5170   -5.6900   -1.4380 ho        1 MOL      0.360178
    137 H64         9.7360   -5.2080   -1.0620 hc        1 MOL      0.111126
    138 H65         9.7200   -3.3590   -0.9740 hc        1 MOL      0.111126
    139 H66         9.3660   -4.3130    0.3220 hc        1 MOL      0.111126
    140 N12         6.8070   -1.1070   -1.1890 n         1 MOL     -0.183483
    141 C43         7.0540    0.3760   -1.2240 c3        1 MOL     -0.088048
    142 C44         6.1580    1.1360   -0.1970 c         1 MOL      0.334356
    143 O21         6.5110    2.2250    0.2960 o         1 MOL     -0.550301
    144 C45         6.9090    0.9170   -2.6530 c3        1 MOL     -0.104354
    145 C46         7.3790    2.3900   -2.8620 c3        1 MOL     -0.010376
    146 C47         7.4460    2.6410   -4.3470 c3        1 MOL      0.030404
    147 C48         8.1950    4.0200   -4.4920 c3        1 MOL     -0.049137
    148 N13         8.3420    4.2930   -5.9790 n4        1 MOL     -0.145938
    149 H67         6.3450   -1.6120   -1.9260 hn        1 MOL      0.162289
    150 H68         8.0880    0.5440   -0.9190 h1        1 MOL      0.121898
    151 H69         5.8570    0.9100   -2.9570 hc        1 MOL      0.058624
    152 H70         7.4380    0.2880   -3.3650 hc        1 MOL      0.058624
    153 H71         8.3880    2.2640   -2.4800 hc        1 MOL      0.046774
    154 H72         6.8200    3.1360   -2.2770 hc        1 MOL      0.046774
    155 H73         6.4270    2.5660   -4.7310 hc        1 MOL      0.020336
    156 H74         8.0830    1.8900   -4.8210 hc        1 MOL      0.020336
    157 H75         9.1390    3.8450   -3.9710 hx        1 MOL      0.096595
    158 H76         7.6020    4.8380   -4.0700 hx        1 MOL      0.096595
    159 H77         8.9960    3.7290   -6.4990 hn        1 MOL      0.250816
    160 H78         7.4400    3.9850   -6.3250 hn        1 MOL      0.250816
    161 H79         8.4890    5.2760   -6.1590 hn        1 MOL      0.250816
    162 N14         5.0040    0.6640    0.1910 n         1 MOL      0.053067
    163 C49         4.1480    1.3480    1.2510 c3        1 MOL     -0.021458
    164 C50         4.7670    1.2550    2.6750 c         1 MOL      0.444534
    165 O22         5.0010    2.3000    3.2590 o         1 MOL     -0.507400
    166 C51         2.7020    0.7900    1.0040 c3        1 MOL     -0.137396
    167 C52         1.9130    1.5810   -0.0340 c3        1 MOL     -0.178128
    168 C53         0.5420    0.8670   -0.3480 c         1 MOL      0.561958
    169 O23        -0.5730    1.4610   -0.3650 o         1 MOL     -0.601945
    170 O24         0.5060   -0.3870   -0.4000 o         1 MOL     -0.601945
    171 H80         4.5670   -0.1380   -0.2190 hn        1 MOL     -0.046602
    172 H81         4.1510    2.4250    1.0640 h1        1 MOL      0.079786
    173 H82         2.0850    0.8920    1.8990 hc        1 MOL      0.103069
    174 H83         2.7500   -0.2900    0.8540 hc        1 MOL      0.103069
    175 H84         2.2750    1.6680   -1.0610 hc        1 MOL      0.036295
    176 H85         1.8100    2.5910    0.3380 hc        1 MOL      0.036295
    177 N15         5.2810    0.0470    2.9810 n         1 MOL     -0.074753
    178 C54         6.0430   -0.1640    4.1810 c3        1 MOL     -0.502660
    179 H86         5.3640   -0.3320    5.0170 h1        1 MOL      0.160455
    180 H87         6.6860   -1.0350    4.0560 h1        1 MOL      0.160455
    181 H88         6.6560    0.7150    4.3830 h1        1 MOL      0.160455
    182 H89         5.2040   -0.7270    2.3290 hn        1 MOL      0.204289
    183 Ca1        -2.0120   -0.5000   -1.0460 Ca        1 MOL      1.680537
    184 O25        -1.1330   -2.7880   -1.6710 oh        1 MOL     -0.853632
    185 H90        -0.6040   -2.7720   -2.4670 ho        1 MOL      0.397751
    186 H91        -1.8180   -3.4330   -1.8440 ho        1 MOL      0.397751
    187 O26        -0.6540    0.0840   -3.3340 oh        1 MOL     -0.853632
    188 H92        -0.0820   -0.0450   -4.0900 ho        1 MOL      0.397751
    189 H93        -1.3020    0.7240   -3.6410 ho        1 MOL      0.397751
@<TRIPOS>BOND
     1    1    2 1   
     2    1    4 1   
     3    1    5 1   
     4    1    6 1   
     5    2    3 2   
     6    2    7 1   
     7    7    8 1   
     8    7   15 1   
     9    8    9 1   
    10    8   11 1   
    11    8   16 1   
    12    9   10 2   
    13    9   19 1   
    14   11   12 1   
    15   11   17 1   
    16   11   18 1   
    17   12   13 1   
    18   12   14 1   
    19   19   20 1   
    20   19   28 1   
    21   20   21 1   
    22   20   23 1   
    23   20   29 1   
    24   21   22 2   
    25   21   41 1   
    26   23   24 1   
    27   23   30 1   
    28   23   31 1   
    29   24   25 1   
    30   24   32 1   
    31   24   33 1   
    32   25   26 1   
    33   25   34 1   
    34   25   35 1   
    35   26   27 1   
    36   26   36 1   
    37   26   37 1   
    38   27   38 1   
    39   27   39 1   
    40   27   40 1   
    41   41   42 1   
    42   41   49 1   
    43   42   43 1   
    44   42   45 1   
    45   42   50 1   
    46   43   44 2   
    47   43   53 1   
    48   45   46 1   
    49   45   51 1   
    50   45   52 1   
    51   46   47 1   
    52   46   48 1   
    53   53   54 1   
    54   53   57 1   
    55   54   55 1   
    56   54   58 1   
    57   54   59 1   
    58   55   56 2   
    59   55   60 1   
    60   60   61 1   
    61   60   68 1   
    62   61   62 1   
    63   61   64 1   
    64   61   69 1   
    65   62   63 2   
    66   62   72 1   
    67   64   65 1   
    68   64   70 1   
    69   64   71 1   
    70   65   66 1   
    71   65   67 1   
    72   72   73 1   
    73   72   76 1   
    74   73   74 1   
    75   73   77 1   
    76   73   78 1   
    77   74   75 2   
    78   74   79 1   
    79   79   80 1   
    80   79   86 1   
    81   80   81 1   
    82   80   83 1   
    83   80   87 1   
    84   81   82 2   
    85   81   93 1   
    86   83   84 1   
    87   83   85 1   
    88   83   88 1   
    89   84   90 1   
    90   84   91 1   
    91   84   92 1   
    92   85   89 1   
    93   93   94 1   
    94   93  101 1   
    95   94   95 1   
    96   94   97 1   
    97   94  102 1   
    98   95   96 2   
    99   95  112 1   
   100   97   98 1   
   101   97   99 1   
   102   97  103 1   
   103   98  100 1   
   104   98  104 1   
   105   98  105 1   
   106   99  106 1   
   107   99  107 1   
   108   99  108 1   
   109  100  109 1   
   110  100  110 1   
   111  100  111 1   
   112  112  113 1   
   113  112  119 1   
   114  113  114 1   
   115  113  116 1   
   116  113  120 1   
   117  114  115 2   
   118  114  126 1   
   119  116  117 1   
   120  116  118 1   
   121  116  121 1   
   122  117  123 1   
   123  117  124 1   
   124  117  125 1   
   125  118  122 1   
   126  126  127 1   
   127  126  133 1   
   128  127  128 1   
   129  127  130 1   
   130  127  134 1   
   131  128  129 2   
   132  128  140 1   
   133  130  131 1   
   134  130  132 1   
   135  130  135 1   
   136  131  137 1   
   137  131  138 1   
   138  131  139 1   
   139  132  136 1   
   140  140  141 1   
   141  140  149 1   
   142  141  142 1   
   143  141  144 1   
   144  141  150 1   
   145  142  143 2   
   146  142  162 1   
   147  144  145 1   
   148  144  151 1   
   149  144  152 1   
   150  145  146 1   
   151  145  153 1   
   152  145  154 1   
   153  146  147 1   
   154  146  155 1   
   155  146  156 1   
   156  147  148 1   
   157  147  157 1   
   158  147  158 1   
   159  148  159 1   
   160  148  160 1   
   161  148  161 1   
   162  162  163 1   
   163  162  171 1   
   164  163  164 1   
   165  163  166 1   
   166  163  172 1   
   167  164  165 2   
   168  164  177 1   
   169  166  167 1   
   170  166  173 1   
   171  166  174 1   
   172  167  168 1   
   173  167  175 1   
   174  167  176 1   
   175  168  169 1   
   176  168  170 1   
   177  177  178 1   
   178  177  182 1   
   179  178  179 1   
   180  178  180 1   
   181  178  181 1   
   182  184  185 1   
   183  184  186 1   
   184  187  188 1   
   185  187  189 1   
@<TRIPOS>SUBSTRUCTURE
     1 MOL         1 TEMP              0 ****  ****    0 ROOT
