@<TRIPOS>MOLECULE
MOL
  189   185     1     0     0
SMALL
resp


@<TRIPOS>ATOM
      1 C1         -0.0320    2.4720    6.0570 c3        1 MOL     -0.340973
      2 C2         -0.4200    2.1110    4.5980 c         1 MOL      0.669936
      3 O1          0.3890    2.3100    3.6520 o         1 MOL     -0.616934
      4 H1         -0.8790    2.9490    6.5500 hc        1 MOL      0.097667
      5 H2          0.2390    1.5650    6.5970 hc        1 MOL      0.097667
      6 H3          0.8160    3.1570    6.0490 hc        1 MOL      0.097667
      7 N1         -1.6470    1.6270    4.3080 n         1 MOL     -0.583999
      8 C3         -2.0930    1.2060    2.9730 c3        1 MOL     -0.062928
      9 C4         -2.5760    2.4900    2.3250 c         1 MOL      0.570002
     10 O2         -3.6620    3.0610    2.6450 o         1 MOL     -0.512712
     11 C5         -3.1870    0.2720    3.1470 c3        1 MOL     -0.262354
     12 C6         -3.8570   -0.3700    1.8700 c         1 MOL      0.417582
     13 O3         -3.5140   -0.0720    0.6830 o         1 MOL     -0.504050
     14 O4         -4.8770   -1.0390    2.1890 o         1 MOL     -0.504050
     15 H4         -2.2480    1.6120    5.1150 hn        1 MOL      0.342268
     16 H5         -1.2430    0.7380    2.4730 h1        1 MOL      0.054051
     17 H6         -3.9930    0.8310    3.6110 hc        1 MOL      0.109077
     18 H7         -2.8640   -0.5270    3.8290 hc        1 MOL      0.109077
     19 N2         -1.7690    3.0320    1.3990 n         1 MOL     -0.131143
     20 C7         -1.9140    4.4010    0.8840 c3        1 MOL      0.001346
     21 C8         -3.2270    4.5560    0.1770 c         1 MOL      0.416131
     22 O5         -3.9420    5.5250    0.4450 o         1 MOL     -0.560390
     23 C9         -0.8250    4.5790   -0.2130 c3        1 MOL     -0.138818
     24 C10        -0.9010    5.9760   -0.8090 c3        1 MOL     -0.105272
     25 C11        -0.9900    7.0570    0.2490 c3        1 MOL      0.031102
     26 C12        -0.6190    8.3570   -0.4530 c3        1 MOL      0.114684
     27 N3         -0.9810    9.6360    0.2460 n4        1 MOL     -0.303693
     28 H8         -0.9430    2.5160    1.1490 hn        1 MOL      0.177399
     29 H9         -1.8700    5.1550    1.6680 h1        1 MOL      0.033994
     30 H10        -0.6900    3.7730   -0.9300 hc        1 MOL      0.095687
     31 H11         0.1470    4.6090    0.2750 hc        1 MOL      0.095687
     32 H12        -1.8330    6.0030   -1.3800 hc        1 MOL      0.043918
     33 H13        -0.0820    6.1770   -1.4940 hc        1 MOL      0.043918
     34 H14        -0.2810    7.0810    1.0740 hc        1 MOL      0.022209
     35 H15        -2.0440    7.0960    0.5290 hc        1 MOL      0.022209
     36 H16        -1.1710    8.3590   -1.3870 hx        1 MOL      0.039183
     37 H17         0.4530    8.3020   -0.6730 hx        1 MOL      0.039183
     38 H18        -0.3690    9.7780    1.0360 hn        1 MOL      0.307682
     39 H19        -0.9290   10.4660   -0.3340 hn        1 MOL      0.307682
     40 H20        -1.8830    9.5450    0.6880 hn        1 MOL      0.307682
     41 N4         -3.5980    3.6990   -0.7900 n         1 MOL     -0.130960
     42 C13        -4.7920    3.7050   -1.6680 c3        1 MOL      0.019944
     43 C14        -5.9130    2.8010   -1.1150 c         1 MOL      0.309378
     44 O6         -7.0220    2.7230   -1.6870 o         1 MOL     -0.491267
     45 C15        -4.2930    3.3200   -3.0440 c3        1 MOL     -0.129143
     46 C16        -3.0140    2.4080   -3.1640 c         1 MOL      0.705917
     47 O7         -2.4840    2.4670   -4.2940 o         1 MOL     -0.683667
     48 O8         -2.5740    1.7450   -2.2250 o         1 MOL     -0.683667
     49 H21        -2.9860    2.8990   -0.8990 hn        1 MOL      0.053882
     50 H22        -5.1850    4.7200   -1.6620 h1        1 MOL      0.088270
     51 H23        -4.2160    4.2680   -3.5740 hc        1 MOL      0.046122
     52 H24        -5.1120    2.8740   -3.6040 hc        1 MOL      0.046122
     53 N5         -5.6320    2.0900   -0.0110 n         1 MOL      0.091520
     54 C17        -6.6580    1.3880    0.8030 c3        1 MOL     -0.205895
     55 C18        -7.1580    0.2080   -0.0340 c         1 MOL      0.579842
     56 O9         -8.3340    0.2620   -0.3500 o         1 MOL     -0.572730
     57 H25        -4.6510    2.0660    0.2510 hn        1 MOL     -0.073695
     58 H26        -7.4880    2.0650    1.0100 h1        1 MOL      0.108154
     59 H27        -6.2100    1.0160    1.7200 h1        1 MOL      0.108154
     60 N6         -6.3040   -0.7370   -0.4660 n         1 MOL     -0.268572
     61 C19        -6.6730   -1.8770   -1.3530 c3        1 MOL     -0.011906
     62 C20        -6.5970   -3.2590   -0.6640 c         1 MOL      0.344342
     63 O10        -6.9330   -4.2390   -1.3210 o         1 MOL     -0.526138
     64 C21        -5.8650   -1.8390   -2.6010 c3        1 MOL     -0.175253
     65 C22        -4.3440   -1.7960   -2.2540 c         1 MOL      0.762728
     66 O11        -3.6350   -1.1290   -3.0060 o         1 MOL     -0.725827
     67 O12        -3.8770   -2.2710   -1.1930 o         1 MOL     -0.725827
     68 H28        -5.3380   -0.6100   -0.1980 hn        1 MOL      0.085645
     69 H29        -7.6730   -1.7640   -1.7640 h1        1 MOL      0.119758
     70 H30        -6.1200   -0.9320   -3.1490 hc        1 MOL      0.070053
     71 H31        -5.9970   -2.6280   -3.3410 hc        1 MOL      0.070053
     72 N7         -6.0860   -3.2970    0.5660 n         1 MOL     -0.022414
     73 C23        -5.9500   -4.4300    1.4020 c3        1 MOL     -0.273645
     74 C24        -4.5110   -4.9980    1.4210 c         1 MOL      0.592337
     75 O13        -4.2950   -6.1000    1.9200 o         1 MOL     -0.573091
     76 H32        -5.6040   -2.4550    0.8420 hn        1 MOL      0.033038
     77 H33        -6.6010   -5.2860    1.2070 h1        1 MOL      0.120086
     78 H34        -5.9850   -4.0750    2.4300 h1        1 MOL      0.120086
     79 N8         -3.6050   -4.2750    0.7920 n         1 MOL     -0.245941
     80 C25        -2.2740   -4.8070    0.5260 c3        1 MOL     -0.397868
     81 C26        -1.1550   -3.6870    0.6120 c         1 MOL      0.626342
     82 O14        -1.2870   -2.5380    0.0200 o         1 MOL     -0.588295
     83 C27        -2.1280   -5.7210   -0.7530 c3        1 MOL      0.498492
     84 C28        -2.8470   -7.0500   -0.6700 c3        1 MOL     -0.530896
     85 O15        -2.6010   -4.9420   -1.8320 oh        1 MOL     -0.572641
     86 H35        -3.8130   -3.4360    0.2850 hn        1 MOL      0.332723
     87 H36        -2.0290   -5.5010    1.3210 h1        1 MOL      0.118805
     88 H37        -1.0640   -5.9280   -0.8620 h1        1 MOL     -0.021492
     89 H38        -3.1790   -4.3240   -1.3830 ho        1 MOL      0.351661
     90 H39        -2.6870   -7.5470   -1.6380 hc        1 MOL      0.141537
     91 H40        -2.5760   -7.7080    0.1520 hc        1 MOL      0.141537
     92 H41        -3.9040   -6.8200   -0.5610 hc        1 MOL      0.141537
     93 N9         -0.0260   -4.0210    1.2020 n         1 MOL     -0.429232
     94 C29         1.1610   -3.1550    1.4490 c3        1 MOL      0.039143
     95 C30         2.3060   -3.5330    0.4650 c         1 MOL      0.328815
     96 O16         2.7910   -4.6750    0.4570 o         1 MOL     -0.517138
     97 C31         1.5950   -3.3000    2.9760 c3        1 MOL      0.077191
     98 C32         0.5220   -2.9450    4.0420 c3        1 MOL     -0.313353
     99 C33         2.9380   -2.5170    3.3080 c3        1 MOL      0.001659
    100 C34        -0.1260   -1.5730    3.7320 c3        1 MOL      0.004476
    101 H42        -0.0740   -4.9340    1.6280 hn        1 MOL      0.296453
    102 H43         0.9010   -2.1140    1.2690 h1        1 MOL      0.058175
    103 H44         1.8300   -4.3610    3.0920 hc        1 MOL      0.029321
    104 H45         1.0300   -2.8380    5.0060 hc        1 MOL      0.092996
    105 H46        -0.2550   -3.7050    4.0160 hc        1 MOL      0.092996
    106 H47         2.8590   -1.4260    3.3010 hc        1 MOL     -0.009595
    107 H48         3.3280   -2.8740    4.2600 hc        1 MOL     -0.009595
    108 H49         3.6980   -2.7950    2.5770 hc        1 MOL     -0.009595
    109 H50        -0.8280   -1.4300    4.5530 hc        1 MOL      0.047030
    110 H51         0.6560   -0.8100    3.7690 hc        1 MOL      0.047030
    111 H52        -0.6200   -1.5870    2.7630 hc        1 MOL      0.047030
    112 N10         2.7310   -2.5370   -0.2920 n         1 MOL      0.030734
    113 C35         3.9290   -2.5570   -1.2130 c3        1 MOL     -0.095044
    114 C36         5.2280   -2.0300   -0.5340 c         1 MOL      0.447439
    115 O17         5.0700   -1.4190    0.5140 o         1 MOL     -0.375642
    116 C37         3.6710   -2.0180   -2.6450 c3        1 MOL      0.306651
    117 C38         2.7730   -2.9110   -3.4670 c3        1 MOL     -0.231499
    118 O18         3.1490   -0.7290   -2.5150 oh        1 MOL     -0.717523
    119 H53         2.2120   -1.6670   -0.1800 hn        1 MOL      0.121674
    120 H54         4.1440   -3.6250   -1.3290 h1        1 MOL      0.037954
    121 H55         4.5910   -1.9810   -3.2380 h1        1 MOL      0.004603
    122 H56         2.3740   -0.6870   -1.9560 ho        1 MOL      0.468563
    123 H57         3.3230   -3.6610   -4.0260 hc        1 MOL      0.067521
    124 H58         1.9200   -3.3200   -2.9120 hc        1 MOL      0.067521
    125 H59         2.3720   -2.2810   -4.2660 hc        1 MOL      0.067521
    126 N11         6.5030   -2.2550   -1.0360 n         1 MOL     -0.376507
    127 C39         7.7650   -1.8980   -0.4280 c3        1 MOL     -0.035511
    128 C40         7.7970   -0.4710   -0.0100 c         1 MOL      0.319766
    129 O19         8.5250   -0.1120    0.9310 o         1 MOL     -0.510542
    130 C41         8.9840   -2.1180   -1.3640 c3        1 MOL      0.339270
    131 C42         9.5220   -3.5190   -1.6140 c3        1 MOL     -0.528189
    132 O20         8.7780   -1.3410   -2.5120 oh        1 MOL     -0.673233
    133 H60         6.5390   -2.8290   -1.8600 hn        1 MOL      0.270181
    134 H61         7.9530   -2.5030    0.4640 h1        1 MOL      0.107534
    135 H62         9.7750   -1.6070   -0.8120 h1        1 MOL      0.051965
    136 H63         9.4470   -1.4650   -3.1760 ho        1 MOL      0.430607
    137 H64         8.8880   -3.9690   -2.3790 hc        1 MOL      0.151617
    138 H65        10.5910   -3.5120   -1.7980 hc        1 MOL      0.151617
    139 H66         9.4590   -4.0800   -0.6780 hc        1 MOL      0.151617
    140 N12         7.0620    0.4220   -0.6920 n         1 MOL     -0.014048
    141 C43         7.1030    1.9350   -0.4120 c3        1 MOL     -0.000360
    142 C44         6.1430    2.3500    0.6640 c         1 MOL      0.357621
    143 O21         6.3900    3.3590    1.2620 o         1 MOL     -0.495036
    144 C45         6.8450    2.5420   -1.7300 c3        1 MOL     -0.271726
    145 C46         5.4590    2.1870   -2.3890 c3        1 MOL      0.148941
    146 C47         5.2510    2.9110   -3.7100 c3        1 MOL     -0.057696
    147 C48         3.7870    2.5230   -4.1600 c3        1 MOL     -0.158866
    148 N13         3.6540    1.1320   -4.5600 n4        1 MOL     -0.179320
    149 H67         6.6480    0.1450   -1.5680 hn        1 MOL      0.077461
    150 H68         8.1330    2.1620   -0.1420 h1        1 MOL      0.127274
    151 H69         7.5530    2.1060   -2.4310 hc        1 MOL      0.090411
    152 H70         6.8830    3.6240   -1.5920 hc        1 MOL      0.090411
    153 H71         4.6540    2.4770   -1.7100 hc        1 MOL     -0.008646
    154 H72         5.2390    1.1210   -2.4460 hc        1 MOL     -0.008646
    155 H73         5.9980    2.6750   -4.4680 hc        1 MOL      0.057791
    156 H74         5.3800    3.9870   -3.5680 hc        1 MOL      0.057791
    157 H75         3.4210    3.1730   -4.9490 hx        1 MOL      0.128152
    158 H76         3.0580    2.5640   -3.3500 hx        1 MOL      0.128152
    159 H77         2.6870    0.9550   -4.8160 hn        1 MOL      0.270708
    160 H78         4.2560    0.7320   -5.2640 hn        1 MOL      0.270708
    161 H79         3.8070    0.5210   -3.7700 hn        1 MOL      0.270708
    162 N14         5.0430    1.6160    0.9080 n         1 MOL     -0.032815
    163 C49         4.0670    1.7600    2.0140 c3        1 MOL     -0.329845
    164 C50         4.6510    1.0250    3.2370 c         1 MOL      0.534674
    165 O22         4.5420    1.3300    4.4020 o         1 MOL     -0.540352
    166 C51         2.7560    1.0680    1.5150 c3        1 MOL      0.254482
    167 C52         2.1440    1.6790    0.2940 c3        1 MOL     -0.045317
    168 C53         0.9510    0.7560   -0.2680 c         1 MOL      0.738830
    169 O23        -0.1920    1.0980   -0.0450 o         1 MOL     -0.738315
    170 O24         1.1390   -0.2760   -0.9110 o         1 MOL     -0.738315
    171 H80         5.0530    0.7620    0.3790 hn        1 MOL      0.039668
    172 H81         3.9900    2.8090    2.2820 h1        1 MOL      0.167677
    173 H82         2.0080    1.2500    2.2950 hc        1 MOL      0.011260
    174 H83         2.7520   -0.0150    1.4010 hc        1 MOL      0.011260
    175 H84         2.8590    1.7010   -0.5240 hc        1 MOL     -0.040984
    176 H85         1.8140    2.7050    0.4280 hc        1 MOL     -0.040984
    177 N15         5.4780   -0.0280    2.9960 n         1 MOL     -0.107238
    178 C54         6.2250   -0.7730    4.0100 c3        1 MOL     -0.296860
    179 H86         7.2600   -0.8840    3.6880 h1        1 MOL      0.110841
    180 H87         6.1950   -0.2310    4.9550 h1        1 MOL      0.110841
    181 H88         5.7780   -1.7580    4.1420 h1        1 MOL      0.110841
    182 H89         5.8260   -0.0780    2.0480 hn        1 MOL      0.153206
    183 Ca1        -1.9540   -0.4480   -1.2790 Ca        1 MOL      1.734406
    184 O25        -1.1280   -2.4310   -2.8260 oh        1 MOL     -0.793651
    185 H90        -0.4710   -3.1050   -2.9780 ho        1 MOL      0.369868
    186 H91        -1.7990   -2.6060   -3.4820 ho        1 MOL      0.369868
    187 O26        -0.6820    0.3290   -3.6240 oh        1 MOL     -0.793651
    188 H92        -0.1660   -0.0750   -4.3250 ho        1 MOL      0.369868
    189 H93        -1.2270    0.9730   -4.0700 ho        1 MOL      0.369868
@<TRIPOS>BOND
     1    1    2 1   
     2    1    4 1   
     3    1    5 1   
     4    1    6 1   
     5    2    3 2   
     6    2    7 1   
     7    7    8 1   
     8    7   15 1   
     9    8    9 1   
    10    8   11 1   
    11    8   16 1   
    12    9   10 2   
    13    9   19 1   
    14   11   12 1   
    15   11   17 1   
    16   11   18 1   
    17   12   13 1   
    18   12   14 1   
    19   19   20 1   
    20   19   28 1   
    21   20   21 1   
    22   20   23 1   
    23   20   29 1   
    24   21   22 2   
    25   21   41 1   
    26   23   24 1   
    27   23   30 1   
    28   23   31 1   
    29   24   25 1   
    30   24   32 1   
    31   24   33 1   
    32   25   26 1   
    33   25   34 1   
    34   25   35 1   
    35   26   27 1   
    36   26   36 1   
    37   26   37 1   
    38   27   38 1   
    39   27   39 1   
    40   27   40 1   
    41   41   42 1   
    42   41   49 1   
    43   42   43 1   
    44   42   45 1   
    45   42   50 1   
    46   43   44 2   
    47   43   53 1   
    48   45   46 1   
    49   45   51 1   
    50   45   52 1   
    51   46   47 1   
    52   46   48 1   
    53   53   54 1   
    54   53   57 1   
    55   54   55 1   
    56   54   58 1   
    57   54   59 1   
    58   55   56 2   
    59   55   60 1   
    60   60   61 1   
    61   60   68 1   
    62   61   62 1   
    63   61   64 1   
    64   61   69 1   
    65   62   63 2   
    66   62   72 1   
    67   64   65 1   
    68   64   70 1   
    69   64   71 1   
    70   65   66 1   
    71   65   67 1   
    72   72   73 1   
    73   72   76 1   
    74   73   74 1   
    75   73   77 1   
    76   73   78 1   
    77   74   75 2   
    78   74   79 1   
    79   79   80 1   
    80   79   86 1   
    81   80   81 1   
    82   80   83 1   
    83   80   87 1   
    84   81   82 2   
    85   81   93 1   
    86   83   84 1   
    87   83   85 1   
    88   83   88 1   
    89   84   90 1   
    90   84   91 1   
    91   84   92 1   
    92   85   89 1   
    93   93   94 1   
    94   93  101 1   
    95   94   95 1   
    96   94   97 1   
    97   94  102 1   
    98   95   96 2   
    99   95  112 1   
   100   97   98 1   
   101   97   99 1   
   102   97  103 1   
   103   98  100 1   
   104   98  104 1   
   105   98  105 1   
   106   99  106 1   
   107   99  107 1   
   108   99  108 1   
   109  100  109 1   
   110  100  110 1   
   111  100  111 1   
   112  112  113 1   
   113  112  119 1   
   114  113  114 1   
   115  113  116 1   
   116  113  120 1   
   117  114  115 2   
   118  114  126 1   
   119  116  117 1   
   120  116  118 1   
   121  116  121 1   
   122  117  123 1   
   123  117  124 1   
   124  117  125 1   
   125  118  122 1   
   126  126  127 1   
   127  126  133 1   
   128  127  128 1   
   129  127  130 1   
   130  127  134 1   
   131  128  129 2   
   132  128  140 1   
   133  130  131 1   
   134  130  132 1   
   135  130  135 1   
   136  131  137 1   
   137  131  138 1   
   138  131  139 1   
   139  132  136 1   
   140  140  141 1   
   141  140  149 1   
   142  141  142 1   
   143  141  144 1   
   144  141  150 1   
   145  142  143 2   
   146  142  162 1   
   147  144  145 1   
   148  144  151 1   
   149  144  152 1   
   150  145  146 1   
   151  145  153 1   
   152  145  154 1   
   153  146  147 1   
   154  146  155 1   
   155  146  156 1   
   156  147  148 1   
   157  147  157 1   
   158  147  158 1   
   159  148  159 1   
   160  148  160 1   
   161  148  161 1   
   162  162  163 1   
   163  162  171 1   
   164  163  164 1   
   165  163  166 1   
   166  163  172 1   
   167  164  165 2   
   168  164  177 1   
   169  166  167 1   
   170  166  173 1   
   171  166  174 1   
   172  167  168 1   
   173  167  175 1   
   174  167  176 1   
   175  168  169 1   
   176  168  170 1   
   177  177  178 1   
   178  177  182 1   
   179  178  179 1   
   180  178  180 1   
   181  178  181 1   
   182  184  185 1   
   183  184  186 1   
   184  187  188 1   
   185  187  189 1   
@<TRIPOS>SUBSTRUCTURE
     1 MOL         1 TEMP              0 ****  ****    0 ROOT
