@<TRIPOS>MOLECULE
MOL
  182   178     1     0     0
SMALL
resp


@<TRIPOS>ATOM
      1 C1         -1.3800    4.7610   -4.6740 c3        1 MOL     -0.347526
      2 C2         -0.9490    4.1060   -3.3950 c         1 MOL      0.614387
      3 O1         -1.6690    4.2150   -2.4260 o         1 MOL     -0.521138
      4 H1         -1.3940    4.0200   -5.4740 hc        1 MOL      0.086747
      5 H2         -2.3800    5.1780   -4.5500 hc        1 MOL      0.086747
      6 H3         -0.6820    5.5580   -4.9280 hc        1 MOL      0.086747
      7 N1          0.2850    3.5110   -3.3280 n         1 MOL     -0.431356
      8 C3          1.0370    3.0000   -2.1640 c3        1 MOL      0.150557
      9 C4          1.6710    4.0950   -1.2730 c         1 MOL      0.184982
     10 O2          2.7140    4.6330   -1.5760 o         1 MOL     -0.421872
     11 C5          2.0950    2.0760   -2.6940 c3        1 MOL      0.019543
     12 C6          2.8830    1.3320   -1.6860 c         1 MOL      0.622829
     13 O3          2.5030    1.1970   -0.4570 o         1 MOL     -0.679599
     14 O4          3.8690    0.6730   -2.1220 o         1 MOL     -0.679599
     15 H4          0.7270    3.3380   -4.2160 hn        1 MOL      0.257914
     16 H5          0.3240    2.4620   -1.5400 h1        1 MOL     -0.004602
     17 H6          2.7290    2.4990   -3.4700 hc        1 MOL      0.026185
     18 H7          1.5160    1.3440   -3.2720 hc        1 MOL      0.026185
     19 N2          0.9310    4.5120   -0.1870 n         1 MOL     -0.127646
     20 C7          1.3830    5.7860    0.5200 c3        1 MOL      0.119120
     21 C8          2.3490    5.5280    1.7030 c         1 MOL      0.402898
     22 O5          2.6800    6.4140    2.4970 o         1 MOL     -0.531688
     23 C9          0.2480    6.7640    0.8710 c3        1 MOL     -0.249413
     24 C10        -0.5300    7.1510   -0.3680 c3        1 MOL      0.472959
     25 C11        -1.7030    8.1120   -0.0380 c3        1 MOL     -0.228025
     26 C12        -2.7390    8.1490   -1.2310 c3        1 MOL      0.023517
     27 N3         -2.2900    8.8770   -2.3830 n4        1 MOL     -0.194008
     28 H8          0.0990    4.0280    0.1200 hn        1 MOL      0.228832
     29 H9          1.9670    6.2940   -0.2420 h1        1 MOL      0.064598
     30 H10         0.6920    7.6690    1.2800 hc        1 MOL      0.067456
     31 H11        -0.4130    6.2590    1.5700 hc        1 MOL      0.067456
     32 H12        -0.8620    6.3090   -0.9770 hc        1 MOL     -0.125761
     33 H13         0.1280    7.7290   -1.0090 hc        1 MOL     -0.125761
     34 H14        -1.4530    9.1570    0.1030 hc        1 MOL      0.072784
     35 H15        -2.1880    7.7190    0.8610 hc        1 MOL      0.072784
     36 H16        -3.6590    8.6740   -0.9680 hx        1 MOL      0.084894
     37 H17        -2.8930    7.0880   -1.4490 hx        1 MOL      0.084894
     38 H18        -1.9070    9.8040   -2.2620 hn        1 MOL      0.281541
     39 H19        -1.4550    8.4580   -2.7770 hn        1 MOL      0.281541
     40 H20        -2.9220    8.8140   -3.1690 hn        1 MOL      0.281541
     41 N4          2.9770    4.3390    1.7500 n         1 MOL     -0.241096
     42 C13         4.2590    4.1590    2.3630 c3        1 MOL      0.176943
     43 C14         5.3240    3.6410    1.3920 c         1 MOL      0.334416
     44 O6          6.4300    3.4440    1.8740 o         1 MOL     -0.476820
     45 C15         4.1490    3.3050    3.6860 c3        1 MOL     -0.264454
     46 C16         3.3500    1.9680    3.6020 c         1 MOL      0.809874
     47 O7          2.6520    1.6190    4.6270 o         1 MOL     -0.738405
     48 O8          3.3130    1.3660    2.5350 o         1 MOL     -0.738405
     49 H21         2.6510    3.6570    1.0740 hn        1 MOL      0.132689
     50 H22         4.6860    5.0710    2.7560 h1        1 MOL      0.082260
     51 H23         3.4910    3.8950    4.3210 hc        1 MOL      0.067300
     52 H24         5.1880    3.2850    4.0180 hc        1 MOL      0.067300
     53 N5          4.9270    3.3890    0.0980 n         1 MOL     -0.104779
     54 C17         5.8440    2.7540   -0.8580 c3        1 MOL     -0.303097
     55 C18         6.4090    1.4240   -0.4600 c         1 MOL      0.548099
     56 O9          7.4780    1.0870   -0.8860 o         1 MOL     -0.587330
     57 H25         3.9610    3.4270   -0.1830 hn        1 MOL     -0.030006
     58 H26         6.6750    3.4530   -0.9460 h1        1 MOL      0.151904
     59 H27         5.2780    2.7280   -1.7830 h1        1 MOL      0.151904
     60 N6          5.7390    0.6840    0.3500 n         1 MOL     -0.270340
     61 C19         6.2500   -0.6570    0.8380 c3        1 MOL      0.067993
     62 C20         6.2490   -1.7150   -0.3040 c         1 MOL      0.296812
     63 O10         6.9200   -2.7510   -0.1890 o         1 MOL     -0.507105
     64 C21         5.5070   -1.1400    2.0430 c3        1 MOL     -0.300879
     65 C22         4.3260   -2.0870    1.8350 c         1 MOL      0.625239
     66 N7          4.3840   -3.3140    2.3790 n         1 MOL     -0.613922
     67 O11         3.4020   -1.7320    1.1800 o         1 MOL     -0.630636
     68 H28         4.8060    0.9880    0.6080 hn        1 MOL      0.299131
     69 H29         7.3170   -0.5970    1.0600 h1        1 MOL      0.122768
     70 H30         5.1240   -0.2790    2.6070 hc        1 MOL      0.094560
     71 H31         6.2510   -1.6130    2.6740 hc        1 MOL      0.094560
     72 H32         5.2420   -3.6300    2.8180 hn        1 MOL      0.320529
     73 H33         3.6690   -4.0060    2.2610 hn        1 MOL      0.320529
     74 N8          5.6150   -1.4690   -1.4360 n         1 MOL     -0.031503
     75 C23         5.4290   -2.3690   -2.5930 c3        1 MOL     -0.336639
     76 C24         4.1180   -3.1680   -2.6140 c         1 MOL      0.591619
     77 O12         3.9630   -3.9900   -3.4960 o         1 MOL     -0.587230
     78 H34         5.0620   -0.6280   -1.5300 hn        1 MOL      0.210134
     79 H35         6.2880   -3.0240   -2.7540 h1        1 MOL      0.142289
     80 H36         5.3420   -1.6140   -3.3750 h1        1 MOL      0.142289
     81 N9          3.2230   -3.0070   -1.6540 n         1 MOL     -0.132697
     82 C25         1.9370   -3.6850   -1.5170 c3        1 MOL      0.077267
     83 C26         0.8200   -2.7150   -1.3370 c         1 MOL      0.299396
     84 O13         0.9520   -1.6820   -0.6360 o         1 MOL     -0.511069
     85 C27         2.0660   -4.6470   -0.3300 c3        1 MOL      0.211278
     86 C28         2.9080   -5.8740   -0.4410 ca        1 MOL     -0.121083
     87 C29         4.3510   -5.8170   -0.1460 ca        1 MOL     -0.081302
     88 C30         2.2870   -7.0390   -0.8680 ca        1 MOL     -0.081302
     89 C31         5.1020   -6.9930   -0.1700 ca        1 MOL     -0.351856
     90 C32         3.1170   -8.2110   -0.9950 ca        1 MOL     -0.351856
     91 C33         4.4930   -8.1460   -0.6450 ca        1 MOL      0.459252
     92 O14         5.1730   -9.3240   -0.8650 oh        1 MOL     -0.498477
     93 H37         3.4560   -2.3120   -0.9630 hn        1 MOL      0.130570
     94 H38         1.7020   -4.2210   -2.4330 h1        1 MOL      0.024021
     95 H39         1.0520   -4.9230   -0.0300 hc        1 MOL     -0.057161
     96 H40         2.5160   -4.1590    0.5330 hc        1 MOL     -0.057161
     97 H41         4.8540   -4.8780    0.0490 ha        1 MOL      0.118413
     98 H42         1.3030   -7.0450   -1.3180 ha        1 MOL      0.118413
     99 H43         6.1590   -6.8800   -0.0260 ha        1 MOL      0.172623
    100 H44         2.7580   -9.2120   -1.1990 ha        1 MOL      0.172623
    101 H45         4.6090  -10.0240   -1.2120 ho        1 MOL      0.330216
    102 N10        -0.3610   -3.0520   -1.8290 n         1 MOL     -0.337139
    103 C34        -1.6520   -2.3680   -1.6240 c3        1 MOL      0.165485
    104 C35        -2.5680   -3.2990   -0.8540 c         1 MOL      0.496534
    105 O15        -2.8710   -4.3500   -1.3840 o         1 MOL     -0.532680
    106 C36        -2.1380   -1.7680   -2.9880 c3        1 MOL      0.100881
    107 C37        -1.7240   -0.3070   -3.1190 c3        1 MOL      0.075486
    108 C38        -3.6450   -1.7870   -3.1890 c3        1 MOL     -0.320927
    109 C39        -1.7780    0.4430   -4.4740 c3        1 MOL     -0.086616
    110 H46        -0.4960   -3.8810   -2.3830 hn        1 MOL      0.264216
    111 H47        -1.5440   -1.4870   -1.0060 h1        1 MOL     -0.002254
    112 H48        -1.6270   -2.3940   -3.7240 hc        1 MOL     -0.014466
    113 H49        -0.6780   -0.2580   -2.8200 hc        1 MOL      0.006234
    114 H50        -2.3780    0.2420   -2.4410 hc        1 MOL      0.006234
    115 H51        -4.1350   -1.1190   -2.4800 hc        1 MOL      0.072342
    116 H52        -3.9410   -1.4420   -4.1780 hc        1 MOL      0.072342
    117 H53        -4.0080   -2.8090   -3.0820 hc        1 MOL      0.072342
    118 H54        -1.2740    1.4060   -4.3930 hc        1 MOL      0.011087
    119 H55        -1.2890   -0.1360   -5.2700 hc        1 MOL      0.011087
    120 H56        -2.8490    0.4680   -4.6900 hc        1 MOL      0.011087
    121 N11        -3.0700   -2.8500    0.3490 n         1 MOL     -0.313706
    122 C40        -4.2480   -3.4240    1.0110 c3        1 MOL     -0.237869
    123 C41        -5.5420   -3.0790    0.3150 c         1 MOL      0.602114
    124 O16        -5.5810   -2.1410   -0.5030 o         1 MOL     -0.392838
    125 C42        -4.3420   -2.7740    2.4130 c3        1 MOL      0.355570
    126 O17        -3.1640   -2.9440    3.1110 oh        1 MOL     -0.644367
    127 H57        -2.6580   -1.9720    0.6360 hn        1 MOL      0.266837
    128 H58        -4.2040   -4.5100    1.0880 h1        1 MOL      0.101647
    129 H59        -5.1290   -3.3260    2.9120 h1        1 MOL     -0.002238
    130 H60        -4.7160   -1.7490    2.3710 h1        1 MOL     -0.002238
    131 H61        -2.5710   -3.5750    2.6880 ho        1 MOL      0.408202
    132 N12        -6.5890   -3.8690    0.5330 n         1 MOL     -0.465757
    133 C43        -7.8920   -3.5400   -0.0500 c3        1 MOL      0.163185
    134 C44        -8.3270   -2.1600    0.4270 c         1 MOL      0.339360
    135 O18        -8.8480   -1.3300   -0.3850 o         1 MOL     -0.490509
    136 C45        -8.9020   -4.6170    0.0660 c3        1 MOL     -0.148353
    137 H62        -6.5400   -4.5630    1.2610 hn        1 MOL      0.278392
    138 H63        -7.6190   -3.4700   -1.0990 h1        1 MOL      0.064690
    139 H64        -8.4400   -5.5810   -0.1610 hc        1 MOL      0.053850
    140 H65        -9.2330   -4.6320    1.1060 hc        1 MOL      0.053850
    141 H66        -9.7630   -4.5800   -0.5910 hc        1 MOL      0.053850
    142 N13        -8.1600   -1.9560    1.7120 n         1 MOL     -0.249168
    143 C46        -8.3410   -0.6550    2.3670 c3        1 MOL      0.085137
    144 C47        -7.3780    0.4460    2.0190 c         1 MOL      0.443008
    145 O19        -7.7830    1.6100    2.0980 o         1 MOL     -0.511267
    146 C48        -8.2180   -0.8860    3.8860 c3        1 MOL     -0.297245
    147 H67        -7.7080   -2.6120    2.3310 hn        1 MOL      0.245940
    148 H68        -9.3390   -0.2650    2.1880 h1        1 MOL      0.109691
    149 H69        -8.1450    0.1310    4.2700 hc        1 MOL      0.086043
    150 H70        -9.0860   -1.5020    4.1260 hc        1 MOL      0.086043
    151 H71        -7.3710   -1.5230    4.1370 hc        1 MOL      0.086043
    152 N14        -6.2640    0.1110    1.3240 n         1 MOL     -0.071847
    153 C49        -5.3430    1.0570    0.7210 c3        1 MOL     -0.130388
    154 C50        -5.6840    1.5530   -0.6510 c         1 MOL      0.472268
    155 O20        -5.4210    2.7040   -0.9980 o         1 MOL     -0.567067
    156 C51        -3.8740    0.5660    0.7760 c3        1 MOL     -0.028455
    157 C52        -2.7840    1.5810    0.3520 c3        1 MOL     -0.232815
    158 C53        -1.3820    1.1010    0.7000 c         1 MOL      0.700689
    159 O21        -1.1220   -0.1310    0.7290 o         1 MOL     -0.761128
    160 O22        -0.4800    1.9380    0.9480 o         1 MOL     -0.761128
    161 H72        -6.0280   -0.8540    1.1690 hn        1 MOL     -0.213750
    162 H73        -5.3090    1.9500    1.3390 h1        1 MOL      0.109294
    163 H74        -3.7160   -0.3750    0.2660 hc        1 MOL      0.107029
    164 H75        -3.7790    0.3480    1.8400 hc        1 MOL      0.107029
    165 H76        -2.9840    2.5140    0.8820 hc        1 MOL      0.094798
    166 H77        -2.7760    1.8150   -0.7140 hc        1 MOL      0.094798
    167 N15        -6.3500    0.7110   -1.4350 n         1 MOL     -0.037323
    168 C54        -6.9150    1.0220   -2.7170 c3        1 MOL     -0.297984
    169 H78        -7.8830    0.5310   -2.8150 h1        1 MOL      0.111257
    170 H79        -7.0460    2.1010   -2.8040 h1        1 MOL      0.111257
    171 H80        -6.2480    0.6710   -3.5040 h1        1 MOL      0.111257
    172 H81        -6.4280   -0.2150   -1.0660 hn        1 MOL      0.144492
    173 Ca1         1.3080   -0.1080    1.5180 Ca        1 MOL      1.792230
    174 O23         2.6750   -1.1690    4.0290 oh        1 MOL     -0.811979
    175 H82         2.7530   -0.2930    4.4100 ho        1 MOL      0.387001
    176 H83         2.7210   -1.7570    4.7830 ho        1 MOL      0.387001
    177 O24         0.1700   -2.1400    2.6660 oh        1 MOL     -0.811979
    178 H84        -0.4300   -2.8430    2.4230 ho        1 MOL      0.387001
    179 H85         0.4000   -2.3120    3.5780 ho        1 MOL      0.387001
    180 O25         0.3180    0.6240    3.9970 oh        1 MOL     -0.811979
    181 H86        -0.2890    0.6240    4.7320 ho        1 MOL      0.387001
    182 H87         1.1780    0.7940    4.3950 ho        1 MOL      0.387001
@<TRIPOS>BOND
     1    1    2 1   
     2    1    4 1   
     3    1    5 1   
     4    1    6 1   
     5    2    3 2   
     6    2    7 1   
     7    7    8 1   
     8    7   15 1   
     9    8    9 1   
    10    8   11 1   
    11    8   16 1   
    12    9   10 2   
    13    9   19 1   
    14   11   12 1   
    15   11   17 1   
    16   11   18 1   
    17   12   13 1   
    18   12   14 1   
    19   19   20 1   
    20   19   28 1   
    21   20   21 1   
    22   20   23 1   
    23   20   29 1   
    24   21   22 2   
    25   21   41 1   
    26   23   24 1   
    27   23   30 1   
    28   23   31 1   
    29   24   25 1   
    30   24   32 1   
    31   24   33 1   
    32   25   26 1   
    33   25   34 1   
    34   25   35 1   
    35   26   27 1   
    36   26   36 1   
    37   26   37 1   
    38   27   38 1   
    39   27   39 1   
    40   27   40 1   
    41   41   42 1   
    42   41   49 1   
    43   42   43 1   
    44   42   45 1   
    45   42   50 1   
    46   43   44 2   
    47   43   53 1   
    48   45   46 1   
    49   45   51 1   
    50   45   52 1   
    51   46   47 1   
    52   46   48 1   
    53   53   54 1   
    54   53   57 1   
    55   54   55 1   
    56   54   58 1   
    57   54   59 1   
    58   55   56 2   
    59   55   60 1   
    60   60   61 1   
    61   60   68 1   
    62   61   62 1   
    63   61   64 1   
    64   61   69 1   
    65   62   63 2   
    66   62   74 1   
    67   64   65 1   
    68   64   70 1   
    69   64   71 1   
    70   65   66 1   
    71   65   67 2   
    72   66   72 1   
    73   66   73 1   
    74   74   75 1   
    75   74   78 1   
    76   75   76 1   
    77   75   79 1   
    78   75   80 1   
    79   76   77 2   
    80   76   81 1   
    81   81   82 1   
    82   81   93 1   
    83   82   83 1   
    84   82   85 1   
    85   82   94 1   
    86   83   84 2   
    87   83  102 1   
    88   85   86 1   
    89   85   95 1   
    90   85   96 1   
    91   86   87 ar  
    92   86   88 ar  
    93   87   89 ar  
    94   87   97 1   
    95   88   90 ar  
    96   88   98 1   
    97   89   91 ar  
    98   89   99 1   
    99   90   91 ar  
   100   90  100 1   
   101   91   92 1   
   102   92  101 1   
   103  102  103 1   
   104  102  110 1   
   105  103  104 1   
   106  103  106 1   
   107  103  111 1   
   108  104  105 2   
   109  104  121 1   
   110  106  107 1   
   111  106  108 1   
   112  106  112 1   
   113  107  109 1   
   114  107  113 1   
   115  107  114 1   
   116  108  115 1   
   117  108  116 1   
   118  108  117 1   
   119  109  118 1   
   120  109  119 1   
   121  109  120 1   
   122  121  122 1   
   123  121  127 1   
   124  122  123 1   
   125  122  125 1   
   126  122  128 1   
   127  123  124 2   
   128  123  132 1   
   129  125  126 1   
   130  125  129 1   
   131  125  130 1   
   132  126  131 1   
   133  132  133 1   
   134  132  137 1   
   135  133  134 1   
   136  133  136 1   
   137  133  138 1   
   138  134  135 2   
   139  134  142 1   
   140  136  139 1   
   141  136  140 1   
   142  136  141 1   
   143  142  143 1   
   144  142  147 1   
   145  143  144 1   
   146  143  146 1   
   147  143  148 1   
   148  144  145 2   
   149  144  152 1   
   150  146  149 1   
   151  146  150 1   
   152  146  151 1   
   153  152  153 1   
   154  152  161 1   
   155  153  154 1   
   156  153  156 1   
   157  153  162 1   
   158  154  155 2   
   159  154  167 1   
   160  156  157 1   
   161  156  163 1   
   162  156  164 1   
   163  157  158 1   
   164  157  165 1   
   165  157  166 1   
   166  158  159 1   
   167  158  160 1   
   168  167  168 1   
   169  167  172 1   
   170  168  169 1   
   171  168  170 1   
   172  168  171 1   
   173  174  175 1   
   174  174  176 1   
   175  177  178 1   
   176  177  179 1   
   177  180  181 1   
   178  180  182 1   
@<TRIPOS>SUBSTRUCTURE
     1 MOL         1 TEMP              0 ****  ****    0 ROOT
