@<TRIPOS>MOLECULE
MOL
  189   185     1     0     0
SMALL
resp


@<TRIPOS>ATOM
      1 C1         -0.1350    2.9550   -4.8680 c3        1 MOL     -0.322628
      2 C2          0.3970    2.6900   -3.4250 c         1 MOL      0.679377
      3 O1         -0.3010    2.9330   -2.4090 o         1 MOL     -0.663407
      4 H1         -0.0630    2.0400   -5.4560 hc        1 MOL      0.081059
      5 H2         -1.1770    3.2730   -4.8190 hc        1 MOL      0.081059
      6 H3          0.4620    3.7360   -5.3390 hc        1 MOL      0.081059
      7 N1          1.6190    2.1390   -3.3240 n         1 MOL     -0.572572
      8 C3          2.3820    1.7400   -2.1380 c3        1 MOL      0.653518
      9 C4          3.0410    2.9900   -1.5770 c         1 MOL      0.066013
     10 O2          4.1560    3.3460   -1.9600 o         1 MOL     -0.478615
     11 C5          3.3610    0.6270   -2.4770 c3        1 MOL     -0.565825
     12 C6          4.2260    0.1350   -1.3450 c         1 MOL      0.887856
     13 O3          5.2320   -0.5250   -1.6860 o         1 MOL     -0.652731
     14 O4          3.8590    0.3760   -0.1930 o         1 MOL     -0.652731
     15 H4          2.0130    1.7880   -4.1910 hn        1 MOL      0.278315
     16 H5          1.6830    1.4230   -1.3680 h1        1 MOL     -0.080117
     17 H6          4.0460    1.0330   -3.2160 hc        1 MOL      0.104329
     18 H7          2.6880   -0.1910   -2.7510 hc        1 MOL      0.104329
     19 N2          2.3950    3.7630   -0.6340 n         1 MOL     -0.042929
     20 C7          2.9510    5.1510   -0.2850 c3        1 MOL      0.016575
     21 C8          3.9300    5.1060    0.9010 c         1 MOL      0.532468
     22 O5          4.3500    6.0910    1.3980 o         1 MOL     -0.560026
     23 C9          1.8620    6.2250   -0.1020 c3        1 MOL     -0.173710
     24 C10         0.7080    6.2990   -1.1360 c3        1 MOL      0.060318
     25 C11         1.0910    6.7740   -2.5370 c3        1 MOL     -0.020520
     26 C12         0.1670    7.7980   -3.1340 c3        1 MOL     -0.094246
     27 N3         -1.1770    7.2780   -3.5360 n4        1 MOL     -0.384925
     28 H8          1.5270    3.3560   -0.3050 hn        1 MOL      0.244674
     29 H9          3.3980    5.4650   -1.2280 h1        1 MOL      0.087345
     30 H10         2.3780    7.1690   -0.2890 hc        1 MOL      0.056640
     31 H11         1.3750    6.1240    0.8680 hc        1 MOL      0.056640
     32 H12        -0.0120    7.0860   -0.9230 hc        1 MOL      0.010618
     33 H13         0.0750    5.4130   -1.0650 hc        1 MOL      0.010618
     34 H14         1.0160    5.9030   -3.2010 hc        1 MOL      0.040435
     35 H15         2.1690    6.9820   -2.5380 hc        1 MOL      0.040435
     36 H16         0.7100    8.1920   -4.0040 hx        1 MOL      0.111790
     37 H17         0.1900    8.6050   -2.4020 hx        1 MOL      0.111790
     38 H18        -1.7360    7.9920   -3.9760 hn        1 MOL      0.346399
     39 H19        -1.0640    6.5600   -4.2260 hn        1 MOL      0.346399
     40 H20        -1.5730    6.8410   -2.7240 hn        1 MOL      0.346399
     41 N4          4.2890    3.9140    1.3520 n         1 MOL     -0.343454
     42 C13         5.1790    3.6300    2.5060 c3        1 MOL      0.180659
     43 C14         6.1590    2.5660    2.2460 c         1 MOL      0.391878
     44 O6          7.1910    2.3820    2.9750 o         1 MOL     -0.528085
     45 C15         4.2600    3.2460    3.7010 c3        1 MOL     -0.296847
     46 C16         3.0780    2.2520    3.3330 c         1 MOL      0.864800
     47 O7          2.0440    2.3550    4.0690 o         1 MOL     -0.723535
     48 O8          3.1940    1.4610    2.3820 o         1 MOL     -0.723535
     49 H21         3.6720    3.2060    0.9620 hn        1 MOL      0.089907
     50 H22         5.7420    4.5440    2.6810 h1        1 MOL      0.078031
     51 H23         3.8010    4.1850    4.0200 hc        1 MOL      0.061652
     52 H24         4.9610    2.9460    4.4850 hc        1 MOL      0.061652
     53 N5          6.1510    1.9400    1.0400 n         1 MOL     -0.230231
     54 C17         7.3910    1.2690    0.5380 c3        1 MOL     -0.071584
     55 C18         7.6500   -0.0880    1.1010 c         1 MOL      0.568628
     56 O9          8.8180   -0.3730    1.4060 o         1 MOL     -0.604836
     57 H25         5.3160    2.0210    0.4810 hn        1 MOL      0.178154
     58 H26         8.2040    1.9870    0.6440 h1        1 MOL      0.079744
     59 H27         7.3640    1.1250   -0.5360 h1        1 MOL      0.079744
     60 N6          6.7600   -1.0300    1.1770 n         1 MOL     -0.174928
     61 C19         6.8920   -2.3630    1.7560 c3        1 MOL     -0.129626
     62 C20         6.6860   -3.4800    0.6950 c         1 MOL      0.381462
     63 O10         6.6110   -4.6800    1.0160 o         1 MOL     -0.509634
     64 C21         5.8380   -2.3680    2.8680 c3        1 MOL     -0.027106
     65 C22         4.3940   -2.0550    2.4370 c         1 MOL      0.700584
     66 O11         3.6450   -1.3890    3.1700 o         1 MOL     -0.714394
     67 O12         3.9560   -2.3530    1.3040 o         1 MOL     -0.714394
     68 H28         5.8810   -0.8940    0.6940 hn        1 MOL      0.081547
     69 H29         7.8130   -2.4720    2.3370 h1        1 MOL      0.157089
     70 H30         6.1040   -1.7240    3.7070 hc        1 MOL      0.034066
     71 H31         5.8480   -3.3300    3.3820 hc        1 MOL      0.034066
     72 N7          6.5500   -3.0580   -0.5550 n         1 MOL     -0.165604
     73 C23         6.3720   -3.9920   -1.7170 c3        1 MOL     -0.308399
     74 C24         4.9540   -4.5640   -1.7970 c         1 MOL      0.533733
     75 O13         4.7620   -5.5980   -2.4930 o         1 MOL     -0.581982
     76 H32         6.5010   -2.0700   -0.7450 hn        1 MOL      0.203852
     77 H33         7.0330   -4.8190   -1.4600 h1        1 MOL      0.155024
     78 H34         6.5630   -3.5700   -2.7070 h1        1 MOL      0.155024
     79 N8          4.0100   -4.0030   -1.0760 n         1 MOL     -0.153761
     80 C25         2.6030   -4.3830   -1.1520 c3        1 MOL     -0.132904
     81 C26         1.5770   -3.2660   -1.1970 c         1 MOL      0.641166
     82 O14         1.8430   -2.1240   -0.8310 o         1 MOL     -0.563824
     83 C27         2.2260   -5.3270    0.0260 c3        1 MOL      0.411135
     84 C28         3.0260   -6.6650    0.0900 c3        1 MOL     -0.449003
     85 O15         2.4730   -4.6830    1.2550 oh        1 MOL     -0.606227
     86 H35         4.3140   -3.1880   -0.5620 hn        1 MOL      0.121691
     87 H36         2.4200   -5.0170   -2.0250 h1        1 MOL      0.080444
     88 H37         1.1740   -5.6260   -0.0570 h1        1 MOL     -0.014426
     89 H38         3.0310   -3.9270    1.0390 ho        1 MOL      0.421926
     90 H39         2.6480   -7.2830    0.8990 hc        1 MOL      0.116759
     91 H40         2.9360   -7.1210   -0.8900 hc        1 MOL      0.116759
     92 H41         4.0860   -6.4470    0.2770 hc        1 MOL      0.116759
     93 N9          0.3270   -3.6670   -1.6650 n         1 MOL     -0.665582
     94 C29        -0.7600   -2.7420   -1.8410 c3        1 MOL      0.020961
     95 C30        -1.9550   -3.2750   -1.0590 c         1 MOL      0.532816
     96 O16        -2.3180   -4.4500   -1.2800 o         1 MOL     -0.549946
     97 C31        -1.1020   -2.5780   -3.3250 c3        1 MOL      0.324990
     98 C32         0.1610   -2.1610   -4.1580 c3        1 MOL      0.192402
     99 C33        -2.2390   -1.6120   -3.4660 c3        1 MOL     -0.414784
    100 C34        -0.0970   -2.1560   -5.6880 c3        1 MOL     -0.266107
    101 H42         0.0530   -4.6370   -1.7670 hn        1 MOL      0.326712
    102 H43        -0.3940   -1.7410   -1.5850 h1        1 MOL      0.091104
    103 H44        -1.4070   -3.5650   -3.6560 hc        1 MOL     -0.057820
    104 H45         0.9130   -2.9170   -3.9400 hc        1 MOL     -0.041398
    105 H46         0.5910   -1.2220   -3.8190 hc        1 MOL     -0.041398
    106 H47        -2.3610   -1.3730   -4.5220 hc        1 MOL      0.052726
    107 H48        -3.1550   -2.0370   -3.0570 hc        1 MOL      0.052726
    108 H49        -1.9890   -0.6870   -2.9410 hc        1 MOL      0.052726
    109 H50         0.7460   -1.8590   -6.2990 hc        1 MOL      0.058870
    110 H51        -0.3830   -3.1660   -5.9680 hc        1 MOL      0.058870
    111 H52        -0.8970   -1.4420   -5.8830 hc        1 MOL      0.058870
    112 N10        -2.4320   -2.5210   -0.0900 n         1 MOL     -0.357702
    113 C35        -3.6570   -2.9150    0.5770 c3        1 MOL      0.028582
    114 C36        -4.9460   -2.3990   -0.2370 c         1 MOL      0.325140
    115 O17        -4.8270   -1.5550   -1.1210 o         1 MOL     -0.295315
    116 C37        -3.7990   -2.3050    1.9890 c3        1 MOL      0.177367
    117 C38        -2.5630   -2.1940    2.8730 c3        1 MOL     -0.237180
    118 O18        -4.4240   -1.0340    1.9890 oh        1 MOL     -0.459390
    119 H53        -1.9210   -1.7020    0.2050 hn        1 MOL      0.344832
    120 H54        -3.6960   -4.0020    0.6610 h1        1 MOL      0.073399
    121 H55        -4.3960   -2.9310    2.6580 h1        1 MOL     -0.004918
    122 H56        -4.4040   -0.7540    2.9080 ho        1 MOL      0.407709
    123 H57        -1.8760   -1.5030    2.3750 hc        1 MOL      0.071560
    124 H58        -2.8890   -1.7160    3.8040 hc        1 MOL      0.071560
    125 H59        -2.1980   -3.1960    3.0860 hc        1 MOL      0.071560
    126 N11        -6.2200   -2.8420    0.1210 n         1 MOL     -0.289439
    127 C39        -7.4670   -2.4130   -0.6030 c3        1 MOL     -0.147669
    128 C40        -7.8960   -0.9690   -0.3830 c         1 MOL      0.450803
    129 O19        -8.5020   -0.3830   -1.2630 o         1 MOL     -0.499059
    130 C41        -8.6430   -3.2780   -0.1480 c3        1 MOL      0.334935
    131 C42        -8.4110   -4.7800   -0.6010 c3        1 MOL     -0.267575
    132 O20        -8.6040   -3.1540    1.2060 oh        1 MOL     -0.579165
    133 H60        -6.2680   -3.4010    0.9620 hn        1 MOL      0.256986
    134 H61        -7.3300   -2.4260   -1.6850 h1        1 MOL      0.127838
    135 H62        -9.5970   -2.9300   -0.5410 h1        1 MOL      0.022992
    136 H63        -9.2530   -2.4950    1.4680 ho        1 MOL      0.362240
    137 H64        -7.3800   -5.0420   -0.3740 hc        1 MOL      0.077611
    138 H65        -9.0980   -5.5200   -0.1810 hc        1 MOL      0.077611
    139 H66        -8.4690   -4.7590   -1.6890 hc        1 MOL      0.077611
    140 N12        -7.3840   -0.3650    0.7200 n         1 MOL     -0.269139
    141 C43        -7.2870    1.0770    0.9570 c3        1 MOL     -0.081485
    142 C44        -6.2340    1.7620    0.0260 c         1 MOL      0.373751
    143 O21        -6.5420    2.7510   -0.5830 o         1 MOL     -0.486856
    144 C45        -6.9040    1.4150    2.4260 c3        1 MOL     -0.018692
    145 C46        -7.8430    0.7060    3.4880 c3        1 MOL     -0.140154
    146 C47        -7.5380    1.2420    4.9270 c3        1 MOL      0.119696
    147 C48        -8.1170    2.6790    5.2650 c3        1 MOL     -0.091502
    148 N13        -9.6020    2.7370    5.3660 n4        1 MOL     -0.252321
    149 H67        -6.7850   -0.9670    1.2590 hn        1 MOL      0.133427
    150 H68        -8.2540    1.5320    0.7230 h1        1 MOL      0.116083
    151 H69        -7.0450    2.4810    2.5780 hc        1 MOL      0.017749
    152 H70        -5.9050    1.0930    2.7350 hc        1 MOL      0.017749
    153 H71        -7.6890   -0.3750    3.4630 hc        1 MOL      0.039001
    154 H72        -8.8290    0.9700    3.0980 hc        1 MOL      0.039001
    155 H73        -6.4690    1.1360    5.1020 hc        1 MOL      0.006843
    156 H74        -8.0340    0.6020    5.6500 hc        1 MOL      0.006843
    157 H75        -7.7360    3.3180    4.4700 hx        1 MOL      0.120708
    158 H76        -7.5280    2.9330    6.1560 hx        1 MOL      0.120708
    159 H77        -9.9570    2.0920    6.0550 hn        1 MOL      0.285441
    160 H78        -9.8950    3.6300    5.7480 hn        1 MOL      0.285441
    161 H79       -10.0760    2.4870    4.5110 hn        1 MOL      0.285441
    162 N14        -5.0580    1.2530    0.0240 n         1 MOL     -0.163224
    163 C49        -4.0790    1.8520   -0.9010 c3        1 MOL     -0.056730
    164 C50        -4.4520    1.8200   -2.3810 c         1 MOL      0.365689
    165 O22        -4.3590    2.8600   -3.0510 o         1 MOL     -0.565211
    166 C51        -2.7960    1.1480   -0.8430 c3        1 MOL      0.131345
    167 C52        -2.0130    1.5180    0.4350 c3        1 MOL     -0.162166
    168 C53        -0.6660    0.7820    0.5820 c         1 MOL      0.805736
    169 O23         0.3950    1.4450    0.5890 o         1 MOL     -0.776973
    170 O24        -0.5600   -0.4570    0.6300 o         1 MOL     -0.776973
    171 H80        -4.7350    0.4520    0.5480 hn        1 MOL      0.160870
    172 H81        -3.8850    2.8760   -0.5810 h1        1 MOL      0.066672
    173 H82        -2.2270    1.2310   -1.7740 hc        1 MOL      0.029462
    174 H83        -3.1300    0.1080   -0.8640 hc        1 MOL      0.029462
    175 H84        -2.5730    1.3850    1.3590 hc        1 MOL      0.012158
    176 H85        -1.7810    2.5760    0.3880 hc        1 MOL      0.012158
    177 N15        -5.0650    0.7220   -2.8040 n         1 MOL      0.055128
    178 C54        -5.6660    0.5750   -4.1130 c3        1 MOL     -0.330374
    179 H86        -5.3300   -0.3590   -4.5630 h1        1 MOL      0.111642
    180 H87        -6.7520    0.5620   -4.0160 h1        1 MOL      0.111642
    181 H88        -5.3670    1.4100   -4.7470 h1        1 MOL      0.111642
    182 H89        -5.2020    0.0390   -2.0680 hn        1 MOL      0.121082
    183 Ca1         2.0200   -0.5850    1.3280 Ca        1 MOL      1.728172
    184 O25         0.7480    0.2410    3.4160 oh        1 MOL     -0.877737
    185 H90         0.2620    0.1730    4.2410 ho        1 MOL      0.398943
    186 H91         1.3190    1.0000    3.5360 ho        1 MOL      0.398943
    187 O26         0.6740   -2.7950    2.1470 oh        1 MOL     -0.877737
    188 H92         0.8900   -3.7300    2.0820 ho        1 MOL      0.398943
    189 H93        -0.1980   -2.7850    2.5540 ho        1 MOL      0.398943
@<TRIPOS>BOND
     1    1    2 1   
     2    1    4 1   
     3    1    5 1   
     4    1    6 1   
     5    2    3 2   
     6    2    7 1   
     7    7    8 1   
     8    7   15 1   
     9    8    9 1   
    10    8   11 1   
    11    8   16 1   
    12    9   10 2   
    13    9   19 1   
    14   11   12 1   
    15   11   17 1   
    16   11   18 1   
    17   12   13 1   
    18   12   14 1   
    19   19   20 1   
    20   19   28 1   
    21   20   21 1   
    22   20   23 1   
    23   20   29 1   
    24   21   22 2   
    25   21   41 1   
    26   23   24 1   
    27   23   30 1   
    28   23   31 1   
    29   24   25 1   
    30   24   32 1   
    31   24   33 1   
    32   25   26 1   
    33   25   34 1   
    34   25   35 1   
    35   26   27 1   
    36   26   36 1   
    37   26   37 1   
    38   27   38 1   
    39   27   39 1   
    40   27   40 1   
    41   41   42 1   
    42   41   49 1   
    43   42   43 1   
    44   42   45 1   
    45   42   50 1   
    46   43   44 2   
    47   43   53 1   
    48   45   46 1   
    49   45   51 1   
    50   45   52 1   
    51   46   47 1   
    52   46   48 1   
    53   53   54 1   
    54   53   57 1   
    55   54   55 1   
    56   54   58 1   
    57   54   59 1   
    58   55   56 2   
    59   55   60 1   
    60   60   61 1   
    61   60   68 1   
    62   61   62 1   
    63   61   64 1   
    64   61   69 1   
    65   62   63 2   
    66   62   72 1   
    67   64   65 1   
    68   64   70 1   
    69   64   71 1   
    70   65   66 1   
    71   65   67 1   
    72   72   73 1   
    73   72   76 1   
    74   73   74 1   
    75   73   77 1   
    76   73   78 1   
    77   74   75 2   
    78   74   79 1   
    79   79   80 1   
    80   79   86 1   
    81   80   81 1   
    82   80   83 1   
    83   80   87 1   
    84   81   82 2   
    85   81   93 1   
    86   83   84 1   
    87   83   85 1   
    88   83   88 1   
    89   84   90 1   
    90   84   91 1   
    91   84   92 1   
    92   85   89 1   
    93   93   94 1   
    94   93  101 1   
    95   94   95 1   
    96   94   97 1   
    97   94  102 1   
    98   95   96 2   
    99   95  112 1   
   100   97   98 1   
   101   97   99 1   
   102   97  103 1   
   103   98  100 1   
   104   98  104 1   
   105   98  105 1   
   106   99  106 1   
   107   99  107 1   
   108   99  108 1   
   109  100  109 1   
   110  100  110 1   
   111  100  111 1   
   112  112  113 1   
   113  112  119 1   
   114  113  114 1   
   115  113  116 1   
   116  113  120 1   
   117  114  115 2   
   118  114  126 1   
   119  116  117 1   
   120  116  118 1   
   121  116  121 1   
   122  117  123 1   
   123  117  124 1   
   124  117  125 1   
   125  118  122 1   
   126  126  127 1   
   127  126  133 1   
   128  127  128 1   
   129  127  130 1   
   130  127  134 1   
   131  128  129 2   
   132  128  140 1   
   133  130  131 1   
   134  130  132 1   
   135  130  135 1   
   136  131  137 1   
   137  131  138 1   
   138  131  139 1   
   139  132  136 1   
   140  140  141 1   
   141  140  149 1   
   142  141  142 1   
   143  141  144 1   
   144  141  150 1   
   145  142  143 2   
   146  142  162 1   
   147  144  145 1   
   148  144  151 1   
   149  144  152 1   
   150  145  146 1   
   151  145  153 1   
   152  145  154 1   
   153  146  147 1   
   154  146  155 1   
   155  146  156 1   
   156  147  148 1   
   157  147  157 1   
   158  147  158 1   
   159  148  159 1   
   160  148  160 1   
   161  148  161 1   
   162  162  163 1   
   163  162  171 1   
   164  163  164 1   
   165  163  166 1   
   166  163  172 1   
   167  164  165 2   
   168  164  177 1   
   169  166  167 1   
   170  166  173 1   
   171  166  174 1   
   172  167  168 1   
   173  167  175 1   
   174  167  176 1   
   175  168  169 1   
   176  168  170 1   
   177  177  178 1   
   178  177  182 1   
   179  178  179 1   
   180  178  180 1   
   181  178  181 1   
   182  184  185 1   
   183  184  186 1   
   184  187  188 1   
   185  187  189 1   
@<TRIPOS>SUBSTRUCTURE
     1 MOL         1 TEMP              0 ****  ****    0 ROOT
