@<TRIPOS>MOLECULE
MOL
  186   183     1     0     0
SMALL
resp


@<TRIPOS>ATOM
      1 C1          0.3650   -1.9780    6.5990 c3        1 MOL     -0.274110
      2 C2          0.6080   -1.7510    5.1110 c         1 MOL      0.773343
      3 O1         -0.3410   -2.0490    4.3750 o         1 MOL     -0.577379
      4 H1         -0.3750   -1.2630    6.9590 hc        1 MOL      0.057597
      5 H2         -0.0030   -2.9910    6.7570 hc        1 MOL      0.057597
      6 H3          1.2980   -1.8410    7.1450 hc        1 MOL      0.057597
      7 N1          1.7810   -1.2480    4.6660 n         1 MOL     -0.751978
      8 C3          2.3610   -1.4500    3.3390 c3        1 MOL      0.346659
      9 C4          2.8650   -2.9300    3.1210 c         1 MOL      0.545058
     10 O2          3.2470   -3.6160    4.0380 o         1 MOL     -0.611709
     11 C5          3.4650   -0.4210    3.1090 c3        1 MOL     -0.357318
     12 C6          4.2460   -0.4500    1.8250 c         1 MOL      0.711863
     13 O3          5.5070   -0.1600    1.7910 o         1 MOL     -0.640377
     14 O4          3.6470   -0.9040    0.7950 o         1 MOL     -0.640377
     15 H4          2.4800   -1.0950    5.3710 hn        1 MOL      0.348095
     16 H5          1.6050   -1.3620    2.5550 h1        1 MOL      0.048615
     17 H6          4.1380   -0.6470    3.9380 hc        1 MOL      0.056536
     18 H7          3.0410    0.5720    3.2090 hc        1 MOL      0.056536
     19 N2          2.7760   -3.4520    1.8950 n         1 MOL     -0.200414
     20 C7          3.0260   -4.8510    1.4200 c3        1 MOL     -0.068404
     21 C8          3.9890   -4.8960    0.2770 c         1 MOL      0.577394
     22 O5          4.9500   -5.6370    0.4000 o         1 MOL     -0.589148
     23 C9          1.7030   -5.5010    1.0430 c3        1 MOL      0.133359
     24 C10         0.5570   -5.3150    2.0750 c3        1 MOL      0.164720
     25 C11         1.8590   -7.0150    0.7000 c3        1 MOL     -0.265148
     26 C12        -0.8520   -5.8150    1.5150 c3        1 MOL     -0.270526
     27 H8          2.4100   -2.8530    1.1650 hn        1 MOL      0.020477
     28 H9          3.4270   -5.5100    2.1910 h1        1 MOL      0.071985
     29 H10         1.3500   -4.9470    0.1800 hc        1 MOL      0.000511
     30 H11         0.4460   -4.2660    2.3590 hc        1 MOL     -0.044415
     31 H12         0.7560   -6.0040    2.8910 hc        1 MOL     -0.044415
     32 H13         0.8980   -7.4320    0.3750 hc        1 MOL      0.050456
     33 H14         2.6670   -7.1680   -0.0230 hc        1 MOL      0.050456
     34 H15         2.2880   -7.5610    1.5430 hc        1 MOL      0.050456
     35 H16        -0.9740   -5.6300    0.4450 hc        1 MOL      0.071465
     36 H17        -1.1230   -6.7950    1.8980 hc        1 MOL      0.071465
     37 H18        -1.5860   -5.2870    2.1250 hc        1 MOL      0.071465
     38 N3          3.8460   -4.0030   -0.7010 n         1 MOL     -0.397708
     39 C13         4.7140   -4.0850   -1.9140 c3        1 MOL      0.064354
     40 C14         6.0630   -3.3200   -1.7150 c         1 MOL      0.390569
     41 O6          6.9730   -3.6140   -2.4620 o         1 MOL     -0.556991
     42 C15         3.8830   -3.6250   -3.1550 c3        1 MOL     -0.211142
     43 C16         3.3120   -2.2320   -3.2440 c         1 MOL      0.851076
     44 O7          3.4300   -1.3590   -2.3810 o         1 MOL     -0.724330
     45 O8          2.6850   -1.9470   -4.2370 o         1 MOL     -0.724330
     46 H19         3.0970   -3.3310   -0.6240 hn        1 MOL      0.259301
     47 H20         4.9180   -5.1360   -2.1040 h1        1 MOL      0.069377
     48 H21         3.0590   -4.3020   -3.3780 hc        1 MOL      0.044023
     49 H22         4.5650   -3.7790   -3.9900 hc        1 MOL      0.044023
     50 N4          6.1020   -2.3680   -0.8540 n         1 MOL      0.047131
     51 C17         7.3820   -1.9240   -0.3870 c3        1 MOL     -0.214962
     52 C18         7.7940   -0.6920   -1.2140 c         1 MOL      0.642845
     53 O9          8.8280   -0.7580   -1.8680 o         1 MOL     -0.587308
     54 H23         5.2520   -2.0000   -0.4360 hn        1 MOL      0.078988
     55 H24         8.1190   -2.7160   -0.2590 h1        1 MOL      0.073366
     56 H25         7.2820   -1.3750    0.5510 h1        1 MOL      0.073366
     57 N5          6.9500    0.3910   -1.0800 n         1 MOL     -0.505933
     58 C19         7.1820    1.7620   -1.6150 c3        1 MOL      0.141599
     59 C20         7.1800    2.7900   -0.4220 c         1 MOL      0.381659
     60 O10         7.6520    3.8800   -0.7380 o         1 MOL     -0.547318
     61 C21         6.0520    2.0640   -2.6520 c3        1 MOL     -0.105530
     62 C22         4.6140    1.8260   -2.0990 c         1 MOL      0.636400
     63 O11         3.6710    1.5560   -2.8870 o         1 MOL     -0.742434
     64 O12         4.3630    1.7940   -0.8680 o         1 MOL     -0.742434
     65 H26         6.1190    0.2600   -0.5290 hn        1 MOL      0.240785
     66 H27         8.0930    1.8330   -2.2040 h1        1 MOL      0.049047
     67 H28         6.2430    1.5350   -3.5790 hc        1 MOL      0.046517
     68 H29         6.1270    3.1240   -2.8980 hc        1 MOL      0.046517
     69 N6          6.6890    2.4290    0.7730 n         1 MOL     -0.207084
     70 C23         6.6850    3.4190    1.9150 c3        1 MOL     -0.038079
     71 C24         5.4100    4.2700    2.0240 c         1 MOL      0.591290
     72 O13         5.4180    5.3360    2.6420 o         1 MOL     -0.586255
     73 H30         6.1620    1.5750    0.8940 hn        1 MOL      0.181003
     74 H31         7.5890    4.0160    1.9560 h1        1 MOL      0.047748
     75 H32         6.6360    2.8040    2.8160 h1        1 MOL      0.047748
     76 N7          4.2900    3.8880    1.3180 n         1 MOL     -0.431985
     77 C25         2.9660    4.4800    1.4150 c3        1 MOL     -0.011166
     78 C26         1.8250    3.4290    1.2330 c         1 MOL      0.775529
     79 O14         2.1620    2.2630    0.8530 o         1 MOL     -0.691291
     80 C27         2.8630    5.7680    0.5600 c3        1 MOL     -0.212508
     81 C28         2.9590    5.5860   -0.9810 c3        1 MOL     -0.136458
     82 C29         2.9240    6.8360   -1.8630 c         1 MOL      0.675694
     83 N8          2.8560    6.6810   -3.2090 n         1 MOL     -0.824898
     84 O15         2.7690    7.9650   -1.3890 o         1 MOL     -0.573497
     85 H33         4.3930    3.1520    0.6340 hn        1 MOL      0.360781
     86 H34         2.7520    4.8250    2.4270 h1        1 MOL      0.053953
     87 H35         3.6160    6.4910    0.8590 hc        1 MOL      0.089762
     88 H36         1.9670    6.3160    0.8360 hc        1 MOL      0.089762
     89 H37         2.2190    4.8800   -1.3610 hc        1 MOL      0.060300
     90 H38         3.9020    5.1560   -1.3250 hc        1 MOL      0.060300
     91 H39         2.7910    5.7380   -3.5580 hn        1 MOL      0.360437
     92 H40         2.5110    7.4670   -3.7320 hn        1 MOL      0.360437
     93 N9          0.5730    3.8360    1.6080 n         1 MOL     -0.511501
     94 C30        -0.5830    2.9350    1.7260 c3        1 MOL     -0.021800
     95 C31        -1.7530    3.4920    0.9010 c         1 MOL      0.341511
     96 O16        -2.1480    4.6140    1.0250 o         1 MOL     -0.559271
     97 C32        -1.0070    2.8030    3.1860 c3        1 MOL      0.282577
     98 C33        -2.2090    1.8030    3.3860 c3        1 MOL     -0.352687
     99 C34         0.0970    2.3250    4.0980 c3        1 MOL     -0.352687
    100 H41         0.6020    4.6820    2.1590 hn        1 MOL      0.284188
    101 H42        -0.2860    1.9820    1.2920 h1        1 MOL      0.137633
    102 H43        -1.3300    3.7220    3.6820 hc        1 MOL     -0.029926
    103 H44        -2.2530    1.5450    4.4490 hc        1 MOL      0.082640
    104 H45        -3.0810    2.2830    2.9540 hc        1 MOL      0.082640
    105 H46        -1.8130    0.8780    2.9720 hc        1 MOL      0.082640
    106 H47         0.9970    2.9470    4.0640 hc        1 MOL      0.082640
    107 H48        -0.2930    2.3120    5.1200 hc        1 MOL      0.082640
    108 H49         0.3560    1.2790    3.9300 hc        1 MOL      0.082640
    109 N10        -2.1050    2.7250   -0.0600 n         1 MOL     -0.089414
    110 C35        -3.2520    2.9350   -0.9580 c3        1 MOL      0.204594
    111 C36        -4.4510    2.1760   -0.4450 c         1 MOL      0.332253
    112 O17        -4.3990    1.5450    0.6130 o         1 MOL     -0.380109
    113 C37        -2.9000    2.6070   -2.4040 c3        1 MOL     -0.307827
    114 C38        -2.9070    1.1360   -2.8280 c         1 MOL      0.448684
    115 N11        -2.9010    0.8700   -4.1290 n         1 MOL     -0.737005
    116 O18        -2.6410    0.1650   -2.1550 o         1 MOL     -0.300050
    117 H50        -1.6950    1.8000    0.0510 hn        1 MOL      0.220977
    118 H51        -3.5070    3.9930   -0.9230 h1        1 MOL      0.029657
    119 H52        -1.9160    3.0390   -2.5900 hc        1 MOL      0.080053
    120 H53        -3.5820    3.0520   -3.1310 hc        1 MOL      0.080053
    121 H54        -2.8710    1.6630   -4.7410 hn        1 MOL      0.358932
    122 H55        -2.6880   -0.0750   -4.4200 hn        1 MOL      0.358932
    123 N12        -5.6250    2.2540   -1.0940 n         1 MOL     -0.502599
    124 C39        -6.8370    1.6580   -0.5900 c3        1 MOL      0.174348
    125 C40        -6.7390    0.1080   -0.6050 c         1 MOL      0.625421
    126 O19        -7.1340   -0.5460    0.3370 o         1 MOL     -0.509040
    127 C41        -8.0950    2.1270   -1.3130 c3        1 MOL     -0.104059
    128 C42        -9.3550    1.8820   -0.5470 ca        1 MOL      0.059664
    129 C43        -9.5370    2.5370    0.6830 ca        1 MOL     -0.222423
    130 C44       -10.3910    1.0300   -1.0080 ca        1 MOL     -0.222423
    131 C45       -10.7410    2.3970    1.3680 ca        1 MOL     -0.147089
    132 C46       -11.6320    0.9930   -0.3480 ca        1 MOL     -0.147089
    133 C47       -11.8400    1.6950    0.8270 ca        1 MOL      0.218004
    134 O20       -13.0090    1.6340    1.5330 oh        1 MOL     -0.459904
    135 H56        -5.7660    2.8810   -1.8750 hn        1 MOL      0.288915
    136 H57        -6.9450    1.8780    0.4790 h1        1 MOL      0.063873
    137 H58        -8.2380    1.6810   -2.2960 hc        1 MOL      0.039907
    138 H59        -8.0090    3.1890   -1.5680 hc        1 MOL      0.039907
    139 H60        -8.7300    3.1050    1.1370 ha        1 MOL      0.148884
    140 H61       -10.1870    0.3780   -1.8440 ha        1 MOL      0.148884
    141 H62       -10.9140    2.7710    2.3660 ha        1 MOL      0.116468
    142 H63       -12.4040    0.3840   -0.8010 ha        1 MOL      0.116468
    143 H64       -13.6950    1.3790    0.9110 ho        1 MOL      0.340013
    144 N13        -5.9670   -0.4730   -1.6000 n         1 MOL     -0.545787
    145 C48        -5.9200   -1.9130   -1.6890 c3        1 MOL     -0.014625
    146 C49        -5.1520   -2.6710   -0.6010 c         1 MOL      0.225320
    147 O21        -5.5490   -3.8130   -0.2490 o         1 MOL     -0.508391
    148 C50        -5.2770   -2.1480   -3.0550 c3        1 MOL      0.060562
    149 C51        -5.0840   -3.6070   -3.5080 c3        1 MOL     -0.198956
    150 C52        -4.3260   -3.6780   -4.8250 c         1 MOL      0.697341
    151 O22        -3.1200   -3.2700   -4.8590 o         1 MOL     -0.735329
    152 O23        -4.9420   -4.0810   -5.8330 o         1 MOL     -0.735329
    153 H65        -5.6330    0.1080   -2.3650 hn        1 MOL      0.256848
    154 H66        -6.9040   -2.3890   -1.7470 h1        1 MOL      0.092480
    155 H67        -4.3000   -1.6610   -3.0680 hc        1 MOL     -0.004284
    156 H68        -5.8940   -1.6340   -3.7940 hc        1 MOL     -0.004284
    157 H69        -6.0380   -4.1160   -3.6670 hc        1 MOL      0.034387
    158 H70        -4.5160   -4.2380   -2.8230 hc        1 MOL      0.034387
    159 N14        -4.1240   -2.0670   -0.0490 n         1 MOL      0.119688
    160 C53        -3.4830   -2.4350    1.1950 c3        1 MOL     -0.021404
    161 C54        -4.3900   -2.1450    2.3670 c         1 MOL      0.478315
    162 O24        -4.5830   -2.9720    3.2300 o         1 MOL     -0.554326
    163 C55        -2.1040   -1.7650    1.2400 c3        1 MOL      0.139927
    164 C56        -1.1770   -2.3350    0.1640 c3        1 MOL     -0.141104
    165 C57         0.0850   -1.4180    0.1590 c         1 MOL      0.705643
    166 O25         1.1840   -1.8200   -0.3360 o         1 MOL     -0.748961
    167 O26         0.0140   -0.1970    0.3890 o         1 MOL     -0.748961
    168 H71        -3.8480   -1.1990   -0.4870 hn        1 MOL      0.053973
    169 H72        -3.2600   -3.4970    1.2420 h1        1 MOL     -0.003073
    170 H73        -1.6220   -1.8780    2.2160 hc        1 MOL      0.001240
    171 H74        -2.2980   -0.6940    1.2290 hc        1 MOL      0.001240
    172 H75        -1.6590   -2.4070   -0.8090 hc        1 MOL      0.043193
    173 H76        -0.9500   -3.3820    0.3910 hc        1 MOL      0.043193
    174 N15        -4.9490   -0.9150    2.4180 n         1 MOL     -0.104782
    175 C58        -5.6960   -0.4190    3.5690 c3        1 MOL     -0.214383
    176 H77        -5.0300    0.1570    4.2120 h1        1 MOL      0.076294
    177 H78        -6.5110    0.2190    3.2270 h1        1 MOL      0.076294
    178 H79        -6.1030   -1.2610    4.1290 h1        1 MOL      0.076294
    179 H80        -4.7050   -0.2780    1.6680 hn        1 MOL      0.097646
    180 Ca1         2.2390    0.3280   -0.9570 Ca        1 MOL      1.752749
    181 O27         0.5000    1.9870   -1.9570 oh        1 MOL     -0.903801
    182 H81         0.3510    1.2910   -2.5990 ho        1 MOL      0.431199
    183 H82         0.8680    2.7120   -2.4650 ho        1 MOL      0.431199
    184 O28         0.8910   -0.2950   -3.2820 oh        1 MOL     -0.903801
    185 H83         1.6400   -0.7480   -3.6560 ho        1 MOL      0.431199
    186 H84         0.1310   -0.7820   -3.6260 ho        1 MOL      0.431199
@<TRIPOS>BOND
     1    1    2 1   
     2    1    4 1   
     3    1    5 1   
     4    1    6 1   
     5    2    3 2   
     6    2    7 1   
     7    7    8 1   
     8    7   15 1   
     9    8    9 1   
    10    8   11 1   
    11    8   16 1   
    12    9   10 2   
    13    9   19 1   
    14   11   12 1   
    15   11   17 1   
    16   11   18 1   
    17   12   13 1   
    18   12   14 1   
    19   19   20 1   
    20   19   27 1   
    21   20   21 1   
    22   20   23 1   
    23   20   28 1   
    24   21   22 2   
    25   21   38 1   
    26   23   24 1   
    27   23   25 1   
    28   23   29 1   
    29   24   26 1   
    30   24   30 1   
    31   24   31 1   
    32   25   32 1   
    33   25   33 1   
    34   25   34 1   
    35   26   35 1   
    36   26   36 1   
    37   26   37 1   
    38   38   39 1   
    39   38   46 1   
    40   39   40 1   
    41   39   42 1   
    42   39   47 1   
    43   40   41 2   
    44   40   50 1   
    45   42   43 1   
    46   42   48 1   
    47   42   49 1   
    48   43   44 1   
    49   43   45 1   
    50   50   51 1   
    51   50   54 1   
    52   51   52 1   
    53   51   55 1   
    54   51   56 1   
    55   52   53 2   
    56   52   57 1   
    57   57   58 1   
    58   57   65 1   
    59   58   59 1   
    60   58   61 1   
    61   58   66 1   
    62   59   60 2   
    63   59   69 1   
    64   61   62 1   
    65   61   67 1   
    66   61   68 1   
    67   62   63 1   
    68   62   64 1   
    69   69   70 1   
    70   69   73 1   
    71   70   71 1   
    72   70   74 1   
    73   70   75 1   
    74   71   72 2   
    75   71   76 1   
    76   76   77 1   
    77   76   85 1   
    78   77   78 1   
    79   77   80 1   
    80   77   86 1   
    81   78   79 2   
    82   78   93 1   
    83   80   81 1   
    84   80   87 1   
    85   80   88 1   
    86   81   82 1   
    87   81   89 1   
    88   81   90 1   
    89   82   83 1   
    90   82   84 2   
    91   83   91 1   
    92   83   92 1   
    93   93   94 1   
    94   93  100 1   
    95   94   95 1   
    96   94   97 1   
    97   94  101 1   
    98   95   96 2   
    99   95  109 1   
   100   97   98 1   
   101   97   99 1   
   102   97  102 1   
   103   98  103 1   
   104   98  104 1   
   105   98  105 1   
   106   99  106 1   
   107   99  107 1   
   108   99  108 1   
   109  109  110 1   
   110  109  117 1   
   111  110  111 1   
   112  110  113 1   
   113  110  118 1   
   114  111  112 2   
   115  111  123 1   
   116  113  114 1   
   117  113  119 1   
   118  113  120 1   
   119  114  115 1   
   120  114  116 2   
   121  115  121 1   
   122  115  122 1   
   123  123  124 1   
   124  123  135 1   
   125  124  125 1   
   126  124  127 1   
   127  124  136 1   
   128  125  126 2   
   129  125  144 1   
   130  127  128 1   
   131  127  137 1   
   132  127  138 1   
   133  128  129 ar  
   134  128  130 ar  
   135  129  131 ar  
   136  129  139 1   
   137  130  132 ar  
   138  130  140 1   
   139  131  133 ar  
   140  131  141 1   
   141  132  133 ar  
   142  132  142 1   
   143  133  134 1   
   144  134  143 1   
   145  144  145 1   
   146  144  153 1   
   147  145  146 1   
   148  145  148 1   
   149  145  154 1   
   150  146  147 2   
   151  146  159 1   
   152  148  149 1   
   153  148  155 1   
   154  148  156 1   
   155  149  150 1   
   156  149  157 1   
   157  149  158 1   
   158  150  151 1   
   159  150  152 1   
   160  159  160 1   
   161  159  168 1   
   162  160  161 1   
   163  160  163 1   
   164  160  169 1   
   165  161  162 2   
   166  161  174 1   
   167  163  164 1   
   168  163  170 1   
   169  163  171 1   
   170  164  165 1   
   171  164  172 1   
   172  164  173 1   
   173  165  166 1   
   174  165  167 1   
   175  174  175 1   
   176  174  179 1   
   177  175  176 1   
   178  175  177 1   
   179  175  178 1   
   180  181  182 1   
   181  181  183 1   
   182  184  185 1   
   183  184  186 1   
@<TRIPOS>SUBSTRUCTURE
     1 MOL         1 TEMP              0 ****  ****    0 ROOT
