@<TRIPOS>MOLECULE
MOL
  176   174     1     0     0
SMALL
resp


@<TRIPOS>ATOM
      1 C1          1.1540   -4.5180    6.5730 c3        1 MOL     -0.322943
      2 C2          0.9000   -3.9570    5.1320 c         1 MOL      0.730704
      3 O1         -0.1650   -4.2770    4.6200 o         1 MOL     -0.578233
      4 H1          2.0110   -5.1910    6.5550 hc        1 MOL      0.082912
      5 H2          1.3560   -3.6920    7.2550 hc        1 MOL      0.082912
      6 H3          0.2720   -5.0620    6.9130 hc        1 MOL      0.082912
      7 N1          1.7810   -3.1510    4.4730 n         1 MOL     -0.678683
      8 C3          1.5830   -2.7790    3.0810 c3        1 MOL      0.152628
      9 C4          1.5790   -4.0020    2.1720 c         1 MOL      0.630891
     10 O2          2.3740   -4.9640    2.3320 o         1 MOL     -0.552206
     11 C5          2.6410   -1.7230    2.6700 c3        1 MOL      0.082190
     12 C6          2.7190   -1.2410    1.2200 c         1 MOL      0.515936
     13 O3          2.4510   -2.0610    0.3000 o         1 MOL     -0.581019
     14 O4          3.0040   -0.0420    0.9230 o         1 MOL     -0.581019
     15 H4          2.6220   -2.9450    5.0060 hn        1 MOL      0.329985
     16 H5          0.6180   -2.2780    2.9890 h1        1 MOL      0.028009
     17 H6          3.6180   -2.1370    2.9120 hc        1 MOL     -0.027176
     18 H7          2.5110   -0.8140    3.2520 hc        1 MOL     -0.027176
     19 N2          0.6080   -4.0350    1.2130 n         1 MOL     -0.417471
     20 C7          0.3570   -5.1830    0.3330 c3        1 MOL     -0.176495
     21 C8          1.5070   -5.4930   -0.5880 c         1 MOL      0.531315
     22 O5          1.6300   -6.5830   -1.1110 o         1 MOL     -0.590478
     23 C9         -0.8820   -4.7220   -0.4730 c3        1 MOL      0.329797
     24 C10        -1.6180   -5.9080   -1.1120 c3        1 MOL     -0.500341
     25 C11        -2.9250   -5.4970   -1.7140 c3        1 MOL      0.276112
     26 C12        -3.3500   -6.5450   -2.7350 c3        1 MOL     -0.041735
     27 N3         -4.5360   -6.2650   -3.5520 n4        1 MOL     -0.232036
     28 H8          0.0530   -3.2130    1.0650 hn        1 MOL      0.226710
     29 H9          0.0640   -6.0390    0.9320 h1        1 MOL      0.133169
     30 H10        -0.4990   -4.2380   -1.3700 hc        1 MOL      0.004622
     31 H11        -1.4840   -4.0680    0.1660 hc        1 MOL      0.004622
     32 H12        -1.7390   -6.6250   -0.2900 hc        1 MOL      0.122818
     33 H13        -1.0310   -6.3460   -1.9120 hc        1 MOL      0.122818
     34 H14        -2.8480   -4.5590   -2.2570 hc        1 MOL     -0.019294
     35 H15        -3.7430   -5.4030   -0.9930 hc        1 MOL     -0.019294
     36 H16        -3.7240   -7.3620   -2.1080 hx        1 MOL      0.084028
     37 H17        -2.5340   -6.7970   -3.4040 hx        1 MOL      0.084028
     38 H18        -5.0610   -7.1090   -3.7620 hn        1 MOL      0.295438
     39 H19        -5.1370   -5.6790   -2.9900 hn        1 MOL      0.295438
     40 H20        -4.3660   -5.7210   -4.3890 hn        1 MOL      0.295438
     41 N4          2.3520   -4.5000   -0.9300 n         1 MOL     -0.170110
     42 C13         3.6290   -4.7060   -1.7060 c3        1 MOL     -0.031690
     43 C14         4.8690   -4.2050   -1.0050 c         1 MOL      0.452108
     44 O6          5.9810   -4.6330   -1.3830 o         1 MOL     -0.562469
     45 C15         3.4830   -4.0490   -3.0560 c3        1 MOL     -0.200135
     46 C16         2.9110   -2.5860   -2.9870 c         1 MOL      0.739196
     47 O7          1.8070   -2.3840   -3.4700 o         1 MOL     -0.737866
     48 O8          3.4940   -1.7030   -2.3210 o         1 MOL     -0.737866
     49 H21         2.0570   -3.6030   -0.5600 hn        1 MOL      0.130383
     50 H22         3.8590   -5.7640   -1.8470 h1        1 MOL      0.133621
     51 H23         2.8260   -4.6230   -3.7190 hc        1 MOL      0.057212
     52 H24         4.4470   -3.9970   -3.5660 hc        1 MOL      0.057212
     53 N5          4.7820   -3.4090    0.0810 n         1 MOL     -0.126768
     54 C17         5.9290   -2.8330    0.7580 c3        1 MOL     -0.220339
     55 C18         6.5240   -1.5900    0.1840 c         1 MOL      0.520029
     56 O9          7.4920   -1.1180    0.7820 o         1 MOL     -0.589119
     57 H25         3.8350   -3.1410    0.3230 hn        1 MOL      0.008856
     58 H26         6.6660   -3.6330    0.8520 h1        1 MOL      0.135329
     59 H27         5.6620   -2.6620    1.7990 h1        1 MOL      0.135329
     60 N6          5.9790   -0.9190   -0.8470 n         1 MOL     -0.292259
     61 C19         6.6120    0.3150   -1.4370 c3        1 MOL      0.075585
     62 C20         6.4520    1.5620   -0.4390 c         1 MOL      0.287731
     63 O10         7.1100    2.5540   -0.6770 o         1 MOL     -0.476050
     64 C21         6.0270    0.6170   -2.7090 c3        1 MOL     -0.247287
     65 C22         4.6470    1.3370   -2.7660 c         1 MOL      0.419560
     66 N7          4.4650    2.2210   -3.6710 n         1 MOL     -0.567907
     67 O11         3.8290    1.2790   -1.8400 o         1 MOL     -0.286526
     68 H28         5.1590   -1.3410   -1.2610 hn        1 MOL      0.231347
     69 H29         7.6920    0.1700   -1.5110 h1        1 MOL      0.102459
     70 H30         5.8460   -0.2780   -3.3120 hc        1 MOL      0.085639
     71 H31         6.7560    1.3070   -3.1540 hc        1 MOL      0.085639
     72 H32         5.2600    2.4350   -4.2570 hn        1 MOL      0.314141
     73 H33         3.6010    2.7250   -3.7800 hn        1 MOL      0.314141
     74 N8          5.6660    1.4230    0.5710 n         1 MOL     -0.007294
     75 C23         5.6370    2.3170    1.7610 c3        1 MOL     -0.067961
     76 C24         4.3950    3.3100    1.8260 c         1 MOL      0.459135
     77 O12         4.4920    4.3200    2.4750 o         1 MOL     -0.508677
     78 H34         5.1440    0.5570    0.6170 hn        1 MOL      0.156006
     79 H35         6.5760    2.8570    1.8740 h1        1 MOL      0.074956
     80 H36         5.6250    1.6520    2.6300 h1        1 MOL      0.074956
     81 N9          3.3680    3.0140    0.9650 n         1 MOL     -0.167619
     82 C25         2.1360    3.7540    0.9060 c3        1 MOL      0.333600
     83 C26         0.9810    2.8150    0.8480 c         1 MOL      0.221211
     84 O13         1.0820    1.7690    0.1100 o         1 MOL     -0.520141
     85 C27         2.0290    4.6770   -0.3300 c3        1 MOL      0.056206
     86 C28         3.2870    5.5520   -0.4190 ca        1 MOL      0.081501
     87 C29         4.4400    4.9210   -0.9040 ca        1 MOL     -0.292325
     88 C30         3.3560    6.9070   -0.0330 ca        1 MOL     -0.292325
     89 C31         5.6450    5.5800   -1.0130 ca        1 MOL     -0.144694
     90 C32         4.6070    7.5860   -0.0120 ca        1 MOL     -0.144694
     91 C33         5.7100    6.9410   -0.5780 ca        1 MOL      0.297042
     92 O14         6.8710    7.6500   -0.7550 oh        1 MOL     -0.487624
     93 H37         3.3970    2.1460    0.4430 hn        1 MOL     -0.079043
     94 H38         2.0460    4.4100    1.7640 h1        1 MOL     -0.022011
     95 H39         1.2380    5.4010   -0.1360 hc        1 MOL     -0.031599
     96 H40         1.8710    4.1010   -1.2420 hc        1 MOL     -0.031599
     97 H41         4.3320    3.8640   -1.1420 ha        1 MOL      0.149751
     98 H42         2.4920    7.4260    0.3490 ha        1 MOL      0.149751
     99 H43         6.5380    5.0700   -1.3440 ha        1 MOL      0.121686
    100 H44         4.6930    8.5800    0.4030 ha        1 MOL      0.121686
    101 H45         6.7760    8.5960   -0.6110 ho        1 MOL      0.349790
    102 N10        -0.1340    3.1920    1.4280 n         1 MOL     -0.298903
    103 C34        -1.4050    2.4890    1.2590 c3        1 MOL     -0.069186
    104 C35        -2.5800    3.4920    0.8480 c         1 MOL      0.456548
    105 O15        -2.6550    4.5550    1.4330 o         1 MOL     -0.504122
    106 C36        -1.8880    1.6150    2.4640 c3        1 MOL      0.112734
    107 C37        -2.3910    2.4680    3.6670 c3        1 MOL     -0.010117
    108 C38        -0.8400    0.6350    2.8900 c3        1 MOL     -0.238904
    109 C39        -2.8570    1.6050    4.8060 c3        1 MOL     -0.144969
    110 H46        -0.0740    4.1190    1.8370 hn        1 MOL      0.297493
    111 H47        -1.2250    1.7510    0.4710 h1        1 MOL      0.096791
    112 H48        -2.6590    0.9510    2.0650 hc        1 MOL     -0.083006
    113 H49        -3.2520    3.0570    3.3690 hc        1 MOL      0.031522
    114 H50        -1.6240    3.1830    3.9590 hc        1 MOL      0.031522
    115 H51        -1.3780   -0.2270    3.2930 hc        1 MOL      0.092072
    116 H52        -0.2580    0.3300    2.0080 hc        1 MOL      0.092072
    117 H53        -0.3020    1.1600    3.6770 hc        1 MOL      0.092072
    118 H54        -3.5920    0.9150    4.4060 hc        1 MOL      0.036496
    119 H55        -2.0250    1.0210    5.2010 hc        1 MOL      0.036496
    120 H56        -3.3380    2.2070    5.5750 hc        1 MOL      0.036496
    121 N11        -3.4630    3.1400   -0.1360 n         1 MOL     -0.325653
    122 C40        -4.6730    3.9050   -0.5530 c3        1 MOL      0.130594
    123 C41        -5.9770    3.3860    0.1140 c         1 MOL      0.419674
    124 O16        -5.8710    2.3600    0.8270 o         1 MOL     -0.398334
    125 C42        -4.7700    3.7510   -2.0670 c3        1 MOL     -0.102888
    126 O17        -5.3340    2.5040   -2.3840 oh        1 MOL     -0.354687
    127 H57        -3.2530    2.3290   -0.7000 hn        1 MOL      0.239388
    128 H58        -4.5280    4.9660   -0.3290 h1        1 MOL      0.057299
    129 H59        -3.7690    3.9360   -2.4310 h1        1 MOL      0.072388
    130 H60        -5.4490    4.4710   -2.5210 h1        1 MOL      0.072388
    131 H61        -5.1410    2.3380   -3.3040 ho        1 MOL      0.362472
    132 N12        -7.1420    3.8620   -0.2610 n         1 MOL     -0.371742
    133 C43        -8.3560    3.3200    0.2690 c3        1 MOL      0.053814
    134 C44        -8.6540    1.8580   -0.1920 c         1 MOL      0.546217
    135 O18        -8.8850    0.9990    0.6560 o         1 MOL     -0.522024
    136 C45        -9.4320    4.3260   -0.2500 c3        1 MOL     -0.356142
    137 H62        -7.1150    4.5510   -0.9960 hn        1 MOL      0.271139
    138 H63        -8.3400    3.4300    1.3520 h1        1 MOL      0.128692
    139 H64       -10.4410    3.9350   -0.0960 hc        1 MOL      0.105541
    140 H65        -9.2390    5.2820    0.2340 hc        1 MOL      0.105541
    141 H66        -9.4880    4.5820   -1.3060 hc        1 MOL      0.105541
    142 N13        -8.2860    1.5330   -1.4500 n         1 MOL     -0.472590
    143 C46        -8.3920    0.1240   -1.9270 c3        1 MOL      0.135623
    144 C47        -7.3260   -0.7850   -1.3410 c         1 MOL      0.363080
    145 O19        -7.5330   -1.9860   -1.3800 o         1 MOL     -0.545427
    146 C48        -8.3710    0.1030   -3.4500 c3        1 MOL     -0.198078
    147 H67        -7.7970    2.2010   -2.0250 hn        1 MOL      0.254154
    148 H68        -9.3600   -0.2930   -1.6710 h1        1 MOL      0.111857
    149 H69        -7.4130    0.4890   -3.7980 hc        1 MOL      0.057682
    150 H70        -8.6880   -0.8630   -3.8400 hc        1 MOL      0.057682
    151 H71        -9.0490    0.8530   -3.8630 hc        1 MOL      0.057682
    152 N14        -6.1710   -0.3260   -0.9400 n         1 MOL      0.058211
    153 C49        -5.1240   -1.1400   -0.3730 c3        1 MOL     -0.091891
    154 C50        -5.4550   -1.4420    1.1280 c         1 MOL      0.524053
    155 O20        -5.4290   -2.5820    1.5840 o         1 MOL     -0.556778
    156 C51        -3.7330   -0.5100   -0.6260 c3        1 MOL     -0.081513
    157 C52        -2.5750   -1.4410   -0.1780 c3        1 MOL      0.042788
    158 C53        -1.1990   -1.0360   -0.6110 c         1 MOL      0.701419
    159 O21        -0.9420   -0.4300   -1.6820 o         1 MOL     -0.781812
    160 O22        -0.2890   -1.4510    0.1390 o         1 MOL     -0.781812
    161 H72        -5.9780    0.6400   -1.1660 hn        1 MOL     -0.089337
    162 H73        -5.2220   -2.1660   -0.7180 h1        1 MOL      0.010793
    163 H74        -3.6550    0.4740   -0.1490 hc        1 MOL      0.024276
    164 H75        -3.6470   -0.4240   -1.7120 hc        1 MOL      0.024276
    165 H76        -2.8100   -2.4260   -0.5860 hc        1 MOL      0.014327
    166 H77        -2.5790   -1.3990    0.9130 hc        1 MOL      0.014327
    167 N15        -5.8790   -0.4150    1.8610 n         1 MOL     -0.042088
    168 C54        -6.4840   -0.4830    3.1750 c3        1 MOL     -0.215566
    169 H78        -5.7480   -0.8410    3.8950 h1        1 MOL      0.088695
    170 H79        -6.8270    0.5100    3.4700 h1        1 MOL      0.088695
    171 H80        -7.3320   -1.1680    3.1510 h1        1 MOL      0.088695
    172 H81        -6.1310    0.4670    1.4250 hn        1 MOL      0.092071
    173 Ca1         1.6800   -0.2160   -1.3880 Ca        1 MOL      1.726258
    174 O23         1.3690    1.7140   -3.2020 oh        1 MOL     -0.979413
    175 H82         1.0290    1.6440   -4.1000 ho        1 MOL      0.464354
    176 H83         1.0160    2.5330   -2.8710 ho        1 MOL      0.464354
@<TRIPOS>BOND
     1    1    2 1   
     2    1    4 1   
     3    1    5 1   
     4    1    6 1   
     5    2    3 2   
     6    2    7 1   
     7    7    8 1   
     8    7   15 1   
     9    8    9 1   
    10    8   11 1   
    11    8   16 1   
    12    9   10 2   
    13    9   19 1   
    14   11   12 1   
    15   11   17 1   
    16   11   18 1   
    17   12   13 1   
    18   12   14 1   
    19   19   20 1   
    20   19   28 1   
    21   20   21 1   
    22   20   23 1   
    23   20   29 1   
    24   21   22 2   
    25   21   41 1   
    26   23   24 1   
    27   23   30 1   
    28   23   31 1   
    29   24   25 1   
    30   24   32 1   
    31   24   33 1   
    32   25   26 1   
    33   25   34 1   
    34   25   35 1   
    35   26   27 1   
    36   26   36 1   
    37   26   37 1   
    38   27   38 1   
    39   27   39 1   
    40   27   40 1   
    41   41   42 1   
    42   41   49 1   
    43   42   43 1   
    44   42   45 1   
    45   42   50 1   
    46   43   44 2   
    47   43   53 1   
    48   45   46 1   
    49   45   51 1   
    50   45   52 1   
    51   46   47 1   
    52   46   48 1   
    53   53   54 1   
    54   53   57 1   
    55   54   55 1   
    56   54   58 1   
    57   54   59 1   
    58   55   56 2   
    59   55   60 1   
    60   60   61 1   
    61   60   68 1   
    62   61   62 1   
    63   61   64 1   
    64   61   69 1   
    65   62   63 2   
    66   62   74 1   
    67   64   65 1   
    68   64   70 1   
    69   64   71 1   
    70   65   66 1   
    71   65   67 2   
    72   66   72 1   
    73   66   73 1   
    74   74   75 1   
    75   74   78 1   
    76   75   76 1   
    77   75   79 1   
    78   75   80 1   
    79   76   77 2   
    80   76   81 1   
    81   81   82 1   
    82   81   93 1   
    83   82   83 1   
    84   82   85 1   
    85   82   94 1   
    86   83   84 2   
    87   83  102 1   
    88   85   86 1   
    89   85   95 1   
    90   85   96 1   
    91   86   87 ar  
    92   86   88 ar  
    93   87   89 ar  
    94   87   97 1   
    95   88   90 ar  
    96   88   98 1   
    97   89   91 ar  
    98   89   99 1   
    99   90   91 ar  
   100   90  100 1   
   101   91   92 1   
   102   92  101 1   
   103  102  103 1   
   104  102  110 1   
   105  103  104 1   
   106  103  106 1   
   107  103  111 1   
   108  104  105 2   
   109  104  121 1   
   110  106  107 1   
   111  106  108 1   
   112  106  112 1   
   113  107  109 1   
   114  107  113 1   
   115  107  114 1   
   116  108  115 1   
   117  108  116 1   
   118  108  117 1   
   119  109  118 1   
   120  109  119 1   
   121  109  120 1   
   122  121  122 1   
   123  121  127 1   
   124  122  123 1   
   125  122  125 1   
   126  122  128 1   
   127  123  124 2   
   128  123  132 1   
   129  125  126 1   
   130  125  129 1   
   131  125  130 1   
   132  126  131 1   
   133  132  133 1   
   134  132  137 1   
   135  133  134 1   
   136  133  136 1   
   137  133  138 1   
   138  134  135 2   
   139  134  142 1   
   140  136  139 1   
   141  136  140 1   
   142  136  141 1   
   143  142  143 1   
   144  142  147 1   
   145  143  144 1   
   146  143  146 1   
   147  143  148 1   
   148  144  145 2   
   149  144  152 1   
   150  146  149 1   
   151  146  150 1   
   152  146  151 1   
   153  152  153 1   
   154  152  161 1   
   155  153  154 1   
   156  153  156 1   
   157  153  162 1   
   158  154  155 2   
   159  154  167 1   
   160  156  157 1   
   161  156  163 1   
   162  156  164 1   
   163  157  158 1   
   164  157  165 1   
   165  157  166 1   
   166  158  159 1   
   167  158  160 1   
   168  167  168 1   
   169  167  172 1   
   170  168  169 1   
   171  168  170 1   
   172  168  171 1   
   173  174  175 1   
   174  174  176 1   
@<TRIPOS>SUBSTRUCTURE
     1 MOL         1 TEMP              0 ****  ****    0 ROOT
