@<TRIPOS>MOLECULE
MOL
  189   185     1     0     0
SMALL
resp


@<TRIPOS>ATOM
      1 C1         -0.1430   -3.7700    5.8520 c3        1 MOL     -0.455988
      2 C2          0.7620   -3.2940    4.7900 c         1 MOL      0.766742
      3 O1          0.9900   -2.0920    4.6870 o         1 MOL     -0.636552
      4 H1         -0.9130   -3.0200    6.0350 hc        1 MOL      0.109018
      5 H2         -0.6130   -4.7020    5.5390 hc        1 MOL      0.109018
      6 H3          0.4260   -3.9370    6.7670 hc        1 MOL      0.109018
      7 N1          1.2860   -4.1800    4.0150 n         1 MOL     -0.601842
      8 C3          1.9170   -3.7460    2.7700 c3        1 MOL      0.266647
      9 C4          1.7310   -4.8860    1.7400 c         1 MOL      0.480644
     10 O2          1.7670   -6.0490    2.1200 o         1 MOL     -0.579253
     11 C5          3.4230   -3.4950    3.0510 c3        1 MOL     -0.380755
     12 C6          4.2380   -3.0860    1.7820 c         1 MOL      0.728847
     13 O3          5.4670   -3.3250    1.7300 o         1 MOL     -0.687900
     14 O4          3.6030   -2.4520    0.9250 o         1 MOL     -0.687900
     15 H4          1.1630   -5.1520    4.2530 hn        1 MOL      0.315986
     16 H5          1.4420   -2.8340    2.4040 h1        1 MOL     -0.002842
     17 H6          3.9390   -4.3290    3.5130 hc        1 MOL      0.097337
     18 H7          3.4260   -2.6050    3.6870 hc        1 MOL      0.097337
     19 N2          1.5500   -4.5380    0.4550 n         1 MOL     -0.162415
     20 C7          1.5300   -5.5160   -0.6590 c3        1 MOL     -0.082405
     21 C8          2.5360   -5.2760   -1.7750 c         1 MOL      0.512329
     22 O5          2.5370   -6.1340   -2.6330 o         1 MOL     -0.573972
     23 C9          0.0700   -5.7560   -1.0940 c3        1 MOL      0.204539
     24 C10        -0.5080   -4.5090   -1.9830 c3        1 MOL      0.174921
     25 C11        -0.9000   -6.0830    0.0590 c3        1 MOL     -0.142470
     26 C12        -1.6640   -5.0180   -2.8330 c3        1 MOL     -0.492976
     27 H8          1.3100   -3.5870    0.2040 hn        1 MOL      0.042328
     28 H9          1.8870   -6.4150   -0.1570 h1        1 MOL      0.077583
     29 H10         0.1510   -6.6250   -1.7410 hc        1 MOL     -0.049057
     30 H11         0.2180   -3.9690   -2.5890 hc        1 MOL     -0.014202
     31 H12        -0.8240   -3.7480   -1.2660 hc        1 MOL     -0.014202
     32 H13        -0.5150   -6.9100    0.6610 hc        1 MOL      0.016761
     33 H14        -0.9240   -5.1810    0.6750 hc        1 MOL      0.016761
     34 H15        -1.8460   -6.3520   -0.4000 hc        1 MOL      0.016761
     35 H16        -1.4150   -5.5180   -3.7710 hc        1 MOL      0.126753
     36 H17        -2.4610   -5.4750   -2.2540 hc        1 MOL      0.126753
     37 H18        -2.0880   -4.0670   -3.1470 hc        1 MOL      0.126753
     38 N3          3.3420   -4.1910   -1.8190 n         1 MOL     -0.382578
     39 C13         4.2410   -3.8690   -2.9130 c3        1 MOL      0.235336
     40 C14         5.6340   -3.4240   -2.5130 c         1 MOL      0.271126
     41 O6          6.6100   -3.7360   -3.2600 o         1 MOL     -0.564050
     42 C15         3.5720   -2.8660   -3.9010 c3        1 MOL     -0.274783
     43 C16         2.7810   -1.8410   -3.1870 c         1 MOL      0.805368
     44 O7          3.1780   -1.4000   -2.0860 o         1 MOL     -0.736702
     45 O8          1.8790   -1.1430   -3.7570 o         1 MOL     -0.736702
     46 H19         3.1810   -3.4910   -1.1110 hn        1 MOL      0.186054
     47 H20         4.4180   -4.7890   -3.4630 h1        1 MOL      0.047932
     48 H21         2.9130   -3.4960   -4.5020 hc        1 MOL      0.069020
     49 H22         4.2980   -2.4990   -4.6240 hc        1 MOL      0.069020
     50 N4          5.8440   -2.6900   -1.3970 n         1 MOL      0.063110
     51 C17         7.1880   -2.3940   -0.9000 c3        1 MOL     -0.164436
     52 C18         7.6660   -1.0060   -1.2610 c         1 MOL      0.492597
     53 O9          8.8260   -0.6510   -1.0400 o         1 MOL     -0.602713
     54 H23         5.0530   -2.6520   -0.7660 hn        1 MOL      0.040717
     55 H24         7.8890   -3.1270   -1.2990 h1        1 MOL      0.091593
     56 H25         7.2490   -2.4270    0.1880 h1        1 MOL      0.091593
     57 N5          6.7370   -0.2460   -1.8500 n         1 MOL     -0.214721
     58 C19         7.0640    1.1060   -2.3770 c3        1 MOL     -0.029922
     59 C20         7.3220    2.1360   -1.2690 c         1 MOL      0.474308
     60 O10         7.6860    3.2630   -1.5600 o         1 MOL     -0.543523
     61 C21         5.8420    1.6280   -3.0920 c3        1 MOL     -0.349378
     62 C22         4.4590    1.5890   -2.4340 c         1 MOL      0.899404
     63 O11         4.3130    1.2040   -1.2480 o         1 MOL     -0.715841
     64 O12         3.5770    2.0250   -3.1820 o         1 MOL     -0.715841
     65 H26         5.7710   -0.5410   -1.8480 hn        1 MOL      0.125463
     66 H27         7.9230    1.0920   -3.0440 h1        1 MOL      0.106396
     67 H28         5.6440    1.0030   -3.9700 hc        1 MOL      0.092483
     68 H29         6.0590    2.6410   -3.4210 hc        1 MOL      0.092483
     69 N6          7.0060    1.8110    0.0030 n         1 MOL     -0.298094
     70 C23         7.1900    2.8380    1.0300 c3        1 MOL     -0.204396
     71 C24         5.9930    3.7240    1.2830 c         1 MOL      0.586889
     72 O13         6.0900    4.5750    2.1650 o         1 MOL     -0.628176
     73 H30         6.5750    0.9390    0.2610 hn        1 MOL      0.280002
     74 H31         7.9760    3.5900    0.9010 h1        1 MOL      0.102983
     75 H32         7.3260    2.3840    2.0150 h1        1 MOL      0.102983
     76 N7          4.8720    3.6370    0.5940 n         1 MOL     -0.211002
     77 C25         3.7040    4.3860    0.8910 c3        1 MOL     -0.076326
     78 C26         2.5620    3.4710    1.1860 c         1 MOL      0.673285
     79 O14         2.5400    2.3540    0.6820 o         1 MOL     -0.563458
     80 C27         3.2670    5.2970   -0.2870 c3        1 MOL     -0.108698
     81 C28         4.1760    6.5780   -0.2120 c3        1 MOL     -0.148904
     82 C29         3.7610    7.6790   -1.1190 c         1 MOL      0.566163
     83 N8          3.9910    7.5720   -2.4160 n         1 MOL     -0.693355
     84 O15         3.1740    8.6510   -0.6660 o         1 MOL     -0.567620
     85 H33         4.7420    2.7790    0.0640 hn        1 MOL      0.121498
     86 H34         3.9240    4.8720    1.8460 h1        1 MOL      0.090534
     87 H35         2.2250    5.6350   -0.2300 hc        1 MOL      0.093076
     88 H36         3.2140    4.7930   -1.2540 hc        1 MOL      0.093076
     89 H37         5.2280    6.3840   -0.4100 hc        1 MOL      0.070757
     90 H38         4.1240    7.0810    0.7500 hc        1 MOL      0.070757
     91 H39         4.6820    6.8760   -2.6840 hn        1 MOL      0.328295
     92 H40         3.9120    8.4570   -2.8970 hn        1 MOL      0.328295
     93 N9          1.5760    3.8660    2.0280 n         1 MOL     -0.769102
     94 C30         0.3430    2.9880    2.2170 c3        1 MOL      0.178949
     95 C31        -0.8270    3.4770    1.3530 c         1 MOL      0.514931
     96 O16        -1.2880    4.6390    1.4410 o         1 MOL     -0.563572
     97 C32         0.0140    2.7960    3.7330 c3        1 MOL      0.391437
     98 C33        -0.3640    4.0440    4.5770 c3        1 MOL     -0.332037
     99 C34        -1.1420    1.7810    3.9030 c3        1 MOL     -0.332037
    100 H41         1.6010    4.8230    2.3560 hn        1 MOL      0.343730
    101 H42         0.5640    1.9560    1.9240 h1        1 MOL      0.065724
    102 H43         0.9080    2.4020    4.2150 hc        1 MOL     -0.071318
    103 H44        -1.2700    4.5020    4.1760 hc        1 MOL      0.060475
    104 H45        -0.3150    3.8080    5.6390 hc        1 MOL      0.060475
    105 H46         0.4220    4.7880    4.3980 hc        1 MOL      0.060475
    106 H47        -1.4690    1.6570    4.9330 hc        1 MOL      0.060475
    107 H48        -1.9610    2.0910    3.2630 hc        1 MOL      0.060475
    108 H49        -0.7990    0.7690    3.6910 hc        1 MOL      0.060475
    109 N10        -1.2640    2.5510    0.4750 n         1 MOL     -0.232317
    110 C35        -2.4470    2.6160   -0.2950 c3        1 MOL      0.080877
    111 C36        -3.7540    2.5100    0.5070 c         1 MOL      0.101022
    112 O17        -3.7000    1.8680    1.5380 o         1 MOL     -0.235523
    113 C37        -2.4950    1.4390   -1.1960 c3        1 MOL     -0.102509
    114 C38        -3.5880    1.4660   -2.2380 c         1 MOL      0.847798
    115 N11        -3.7090    2.4540   -3.0880 n         1 MOL     -0.935157
    116 O18        -4.2640    0.5070   -2.3680 o         1 MOL     -0.584095
    117 H50        -0.7260    1.6860    0.4010 hn        1 MOL      0.121602
    118 H51        -2.4650    3.5470   -0.8670 h1        1 MOL      0.009606
    119 H52        -2.5720    0.5420   -0.5830 hc        1 MOL      0.043111
    120 H53        -1.5160    1.4490   -1.6840 hc        1 MOL      0.043111
    121 H54        -3.0250    3.1980   -3.1560 hn        1 MOL      0.394142
    122 H55        -4.3560    2.2390   -3.8330 hn        1 MOL      0.394142
    123 N12        -4.8900    2.9600   -0.0320 n         1 MOL     -0.025165
    124 C39        -6.1570    2.8760    0.6510 c3        1 MOL     -0.023591
    125 C40        -6.6590    1.4120    0.8930 c         1 MOL      0.452221
    126 O19        -7.3080    1.1570    1.8880 o         1 MOL     -0.582158
    127 C41        -7.3030    3.6400   -0.0650 c3        1 MOL     -0.306793
    128 C42        -7.9520    3.0350   -1.1720 ca        1 MOL      0.138375
    129 C43        -9.2660    2.4480   -1.0000 ca        1 MOL     -0.280679
    130 C44        -7.3550    3.0800   -2.4750 ca        1 MOL     -0.280679
    131 C45        -9.9200    1.8570   -2.0980 ca        1 MOL     -0.207806
    132 C46        -8.0860    2.6040   -3.6300 ca        1 MOL     -0.207806
    133 C47        -9.4000    1.9660   -3.4590 ca        1 MOL      0.289452
    134 O20       -10.1990    1.6660   -4.5730 oh        1 MOL     -0.476673
    135 H56        -4.7700    3.6620   -0.7540 hn        1 MOL      0.144997
    136 H57        -5.9500    3.3030    1.6320 h1        1 MOL      0.052765
    137 H58        -6.8770    4.6270   -0.2490 hc        1 MOL      0.113995
    138 H59        -8.0650    3.8470    0.6920 hc        1 MOL      0.113995
    139 H60        -9.6530    2.3480   -0.0030 ha        1 MOL      0.170460
    140 H61        -6.3700    3.5220   -2.5350 ha        1 MOL      0.170460
    141 H62       -10.8710    1.3630   -2.0010 ha        1 MOL      0.154028
    142 H63        -7.6810    2.7660   -4.6240 ha        1 MOL      0.154028
    143 H64       -10.9980    1.2960   -4.1950 ho        1 MOL      0.358605
    144 N13        -6.2340    0.4980    0.0160 n         1 MOL      0.108776
    145 C48        -6.6800   -0.9300    0.0630 c3        1 MOL      0.065734
    146 C49        -5.7010   -1.8110    0.8500 c         1 MOL      0.388352
    147 O21        -5.9420   -2.9080    1.2470 o         1 MOL     -0.534475
    148 C50        -7.0920   -1.2760   -1.3740 c3        1 MOL      0.094726
    149 C51        -8.0580   -2.5280   -1.3290 c3        1 MOL     -0.256749
    150 C52        -8.1050   -3.2520   -2.6470 c         1 MOL      0.751850
    151 O22        -7.3760   -2.8040   -3.5910 o         1 MOL     -0.762430
    152 O23        -8.6500   -4.3190   -2.7180 o         1 MOL     -0.762430
    153 H65        -5.6370    0.8590   -0.7160 hn        1 MOL      0.018876
    154 H66        -7.5600   -0.8540    0.7020 h1        1 MOL      0.005062
    155 H67        -6.1440   -1.4830   -1.8650 hc        1 MOL      0.007110
    156 H68        -7.5670   -0.3810   -1.7790 hc        1 MOL      0.007110
    157 H69        -9.0460   -2.2510   -0.9680 hc        1 MOL      0.032737
    158 H70        -7.6530   -3.2730   -0.6480 hc        1 MOL      0.032737
    159 N14        -4.5710   -1.2980    1.1640 n         1 MOL     -0.006669
    160 C53        -3.7610   -1.7100    2.3600 c3        1 MOL     -0.114657
    161 C54        -4.3990   -1.2140    3.6820 c         1 MOL      0.418609
    162 O24        -4.3860   -1.9520    4.7180 o         1 MOL     -0.566597
    163 C55        -2.2330   -1.3240    2.1710 c3        1 MOL      0.017607
    164 C56        -1.5280   -1.9630    0.9730 c3        1 MOL     -0.054150
    165 C57        -0.2260   -1.2780    0.5810 c         1 MOL      0.700328
    166 O25         0.6540   -1.8930   -0.1070 o         1 MOL     -0.669192
    167 O26        -0.0350   -0.0830    0.7760 o         1 MOL     -0.669192
    168 H71        -4.3150   -0.4170    0.7610 hn        1 MOL     -0.106119
    169 H72        -3.8530   -2.7720    2.5450 h1        1 MOL      0.105303
    170 H73        -1.7060   -1.5870    3.0920 hc        1 MOL      0.027877
    171 H74        -2.1260   -0.2400    2.1620 hc        1 MOL      0.027877
    172 H75        -2.2530   -2.0180    0.1590 hc        1 MOL      0.047658
    173 H76        -1.4880   -3.0220    1.2450 hc        1 MOL      0.047658
    174 N15        -4.8190    0.0460    3.7400 n         1 MOL     -0.061218
    175 C58        -5.4120    0.7780    4.8870 c3        1 MOL     -0.058671
    176 H77        -5.6690    0.0700    5.6750 h1        1 MOL      0.047330
    177 H78        -4.6910    1.5010    5.2690 h1        1 MOL      0.047330
    178 H79        -6.3120    1.2990    4.5610 h1        1 MOL      0.047330
    179 H80        -4.6750    0.5260    2.8680 hn        1 MOL      0.024133
    180 Ca1         2.7400   -0.1900    0.0280 Ca        1 MOL      1.764098
    181 O27         2.1760   -0.1490    2.9400 oh        1 MOL     -0.858583
    182 H81         2.6140    0.4740    3.5110 ho        1 MOL      0.419202
    183 H82         1.3830   -0.4020    3.4130 ho        1 MOL      0.419202
    184 O28         1.3350    0.9490   -2.0050 oh        1 MOL     -0.858583
    185 H83         1.2200    0.1280   -2.4980 ho        1 MOL      0.419202
    186 H84         1.9820    1.4370   -2.5080 ho        1 MOL      0.419202
    187 O29         4.9200    0.6150    1.5850 oh        1 MOL     -0.858583
    188 H85         4.8860    1.2190    2.3250 ho        1 MOL      0.419202
    189 H86         5.7590    0.1620    1.6840 ho        1 MOL      0.419202
@<TRIPOS>BOND
     1    1    2 1   
     2    1    4 1   
     3    1    5 1   
     4    1    6 1   
     5    2    3 2   
     6    2    7 1   
     7    7    8 1   
     8    7   15 1   
     9    8    9 1   
    10    8   11 1   
    11    8   16 1   
    12    9   10 2   
    13    9   19 1   
    14   11   12 1   
    15   11   17 1   
    16   11   18 1   
    17   12   13 1   
    18   12   14 1   
    19   19   20 1   
    20   19   27 1   
    21   20   21 1   
    22   20   23 1   
    23   20   28 1   
    24   21   22 2   
    25   21   38 1   
    26   23   24 1   
    27   23   25 1   
    28   23   29 1   
    29   24   26 1   
    30   24   30 1   
    31   24   31 1   
    32   25   32 1   
    33   25   33 1   
    34   25   34 1   
    35   26   35 1   
    36   26   36 1   
    37   26   37 1   
    38   38   39 1   
    39   38   46 1   
    40   39   40 1   
    41   39   42 1   
    42   39   47 1   
    43   40   41 2   
    44   40   50 1   
    45   42   43 1   
    46   42   48 1   
    47   42   49 1   
    48   43   44 1   
    49   43   45 1   
    50   50   51 1   
    51   50   54 1   
    52   51   52 1   
    53   51   55 1   
    54   51   56 1   
    55   52   53 2   
    56   52   57 1   
    57   57   58 1   
    58   57   65 1   
    59   58   59 1   
    60   58   61 1   
    61   58   66 1   
    62   59   60 2   
    63   59   69 1   
    64   61   62 1   
    65   61   67 1   
    66   61   68 1   
    67   62   63 1   
    68   62   64 1   
    69   69   70 1   
    70   69   73 1   
    71   70   71 1   
    72   70   74 1   
    73   70   75 1   
    74   71   72 2   
    75   71   76 1   
    76   76   77 1   
    77   76   85 1   
    78   77   78 1   
    79   77   80 1   
    80   77   86 1   
    81   78   79 2   
    82   78   93 1   
    83   80   81 1   
    84   80   87 1   
    85   80   88 1   
    86   81   82 1   
    87   81   89 1   
    88   81   90 1   
    89   82   83 1   
    90   82   84 2   
    91   83   91 1   
    92   83   92 1   
    93   93   94 1   
    94   93  100 1   
    95   94   95 1   
    96   94   97 1   
    97   94  101 1   
    98   95   96 2   
    99   95  109 1   
   100   97   98 1   
   101   97   99 1   
   102   97  102 1   
   103   98  103 1   
   104   98  104 1   
   105   98  105 1   
   106   99  106 1   
   107   99  107 1   
   108   99  108 1   
   109  109  110 1   
   110  109  117 1   
   111  110  111 1   
   112  110  113 1   
   113  110  118 1   
   114  111  112 2   
   115  111  123 1   
   116  113  114 1   
   117  113  119 1   
   118  113  120 1   
   119  114  115 1   
   120  114  116 2   
   121  115  121 1   
   122  115  122 1   
   123  123  124 1   
   124  123  135 1   
   125  124  125 1   
   126  124  127 1   
   127  124  136 1   
   128  125  126 2   
   129  125  144 1   
   130  127  128 1   
   131  127  137 1   
   132  127  138 1   
   133  128  129 ar  
   134  128  130 ar  
   135  129  131 ar  
   136  129  139 1   
   137  130  132 ar  
   138  130  140 1   
   139  131  133 ar  
   140  131  141 1   
   141  132  133 ar  
   142  132  142 1   
   143  133  134 1   
   144  134  143 1   
   145  144  145 1   
   146  144  153 1   
   147  145  146 1   
   148  145  148 1   
   149  145  154 1   
   150  146  147 2   
   151  146  159 1   
   152  148  149 1   
   153  148  155 1   
   154  148  156 1   
   155  149  150 1   
   156  149  157 1   
   157  149  158 1   
   158  150  151 1   
   159  150  152 1   
   160  159  160 1   
   161  159  168 1   
   162  160  161 1   
   163  160  163 1   
   164  160  169 1   
   165  161  162 2   
   166  161  174 1   
   167  163  164 1   
   168  163  170 1   
   169  163  171 1   
   170  164  165 1   
   171  164  172 1   
   172  164  173 1   
   173  165  166 1   
   174  165  167 1   
   175  174  175 1   
   176  174  179 1   
   177  175  176 1   
   178  175  177 1   
   179  175  178 1   
   180  181  182 1   
   181  181  183 1   
   182  184  185 1   
   183  184  186 1   
   184  187  188 1   
   185  187  189 1   
@<TRIPOS>SUBSTRUCTURE
     1 MOL         1 TEMP              0 ****  ****    0 ROOT
