@<TRIPOS>MOLECULE
MOL
  189   185     1     0     0
SMALL
resp


@<TRIPOS>ATOM
      1 C1          1.5690    4.0380   -5.3960 c3        1 MOL     -0.215296
      2 C2          1.2800    3.2700   -4.0650 c         1 MOL      0.632387
      3 O1          0.1540    3.3990   -3.5020 o         1 MOL     -0.577717
      4 H1          2.6440    4.0550   -5.5790 hc        1 MOL      0.050386
      5 H2          1.0690    3.5340   -6.2230 hc        1 MOL      0.050386
      6 H3          1.1980    5.0600   -5.3140 hc        1 MOL      0.050386
      7 N1          2.2780    2.5060   -3.6240 n         1 MOL     -0.474321
      8 C3          2.5430    2.0090   -2.2750 c3        1 MOL      0.144393
      9 C4          2.8150    3.2470   -1.4080 c         1 MOL      0.290138
     10 O2          3.7310    4.0670   -1.5410 o         1 MOL     -0.521217
     11 C5          3.7180    1.0950   -2.3530 c3        1 MOL     -0.274156
     12 C6          4.2520    0.4370   -1.0610 c         1 MOL      1.002332
     13 O3          3.5160    0.4460   -0.0940 o         1 MOL     -0.766471
     14 O4          5.3280   -0.2300   -1.1830 o         1 MOL     -0.766471
     15 H4          3.0340    2.3690   -4.2790 hn        1 MOL      0.304315
     16 H5          1.6480    1.4660   -1.9490 h1        1 MOL      0.015666
     17 H6          4.5220    1.6570   -2.8300 hc        1 MOL      0.050930
     18 H7          3.4140    0.3180   -3.0410 hc        1 MOL      0.050930
     19 N2          1.9580    3.4940   -0.3810 n         1 MOL     -0.010992
     20 C7          1.9930    4.8300    0.2860 c3        1 MOL     -0.159116
     21 C8          2.7420    4.7250    1.6250 c         1 MOL      0.420216
     22 O5          3.1460    5.8210    2.0960 o         1 MOL     -0.568569
     23 C9          0.4670    5.3090    0.3250 c3        1 MOL     -0.044584
     24 C10        -0.3500    5.5510   -0.9640 c3        1 MOL     -0.002289
     25 C11         0.4480    6.1880   -2.1640 c3        1 MOL     -0.063691
     26 C12         1.1740    7.4490   -1.7660 c3        1 MOL      0.151130
     27 N3          1.7090    8.1140   -3.0120 n4        1 MOL     -0.407538
     28 H8          1.1740    2.8800   -0.2010 hn        1 MOL      0.171326
     29 H9          2.5490    5.5690   -0.2820 h1        1 MOL      0.124526
     30 H10         0.3650    6.2260    0.9020 hc        1 MOL      0.027525
     31 H11        -0.1150    4.5120    0.8030 hc        1 MOL      0.027525
     32 H12        -1.0790    6.3230   -0.7250 hc        1 MOL      0.030376
     33 H13        -0.7440    4.5430   -1.1030 hc        1 MOL      0.030376
     34 H14        -0.2680    6.4520   -2.9500 hc        1 MOL      0.021182
     35 H15         1.1890    5.4850   -2.5480 hc        1 MOL      0.021182
     36 H16         1.9490    7.2250   -1.0300 hx        1 MOL      0.053082
     37 H17         0.4790    8.0890   -1.2150 hx        1 MOL      0.053082
     38 H18         2.1120    9.0120   -2.7810 hn        1 MOL      0.332590
     39 H19         2.3270    7.4790   -3.5030 hn        1 MOL      0.332590
     40 H20         0.9330    8.3370   -3.6120 hn        1 MOL      0.332590
     41 N4          3.0040    3.5780    2.2480 n         1 MOL     -0.122252
     42 C13         3.8740    3.4960    3.4350 c3        1 MOL     -0.043519
     43 C14         5.2460    2.9730    3.0100 c         1 MOL      0.485643
     44 O6          6.1960    3.0050    3.8700 o         1 MOL     -0.528725
     45 C15         3.2770    2.6110    4.5810 c3        1 MOL     -0.198815
     46 C16         2.5700    1.3360    4.0750 c         1 MOL      0.786606
     47 O7          1.7820    0.8390    4.8610 o         1 MOL     -0.711196
     48 O8          2.8580    0.7860    2.9780 o         1 MOL     -0.711196
     49 H21         2.5950    2.7210    1.8900 hn        1 MOL      0.095975
     50 H22         4.3760    4.4020    3.7640 h1        1 MOL      0.085428
     51 H23         2.4840    3.1570    5.0920 hc        1 MOL      0.070874
     52 H24         3.9950    2.3720    5.3680 hc        1 MOL      0.070874
     53 N5          5.4320    2.2580    1.8340 n         1 MOL     -0.225077
     54 C17         6.7030    1.6670    1.4160 c3        1 MOL     -0.203183
     55 C18         6.9510    0.2660    1.9950 c         1 MOL      0.683606
     56 O9          7.7650    0.0870    2.8960 o         1 MOL     -0.567585
     57 H25         4.6610    2.0680    1.2140 hn        1 MOL      0.193288
     58 H26         7.4760    2.3730    1.7260 h1        1 MOL      0.080781
     59 H27         6.7950    1.5010    0.3420 h1        1 MOL      0.080781
     60 N6          6.3570   -0.7160    1.3970 n         1 MOL     -0.376528
     61 C19         6.7350   -2.1090    1.7830 c3        1 MOL      0.061352
     62 C20         6.9020   -3.0040    0.5000 c         1 MOL      0.444533
     63 O10         7.5810   -4.0280    0.5200 o         1 MOL     -0.566857
     64 C21         5.7300   -2.7590    2.6850 c3        1 MOL     -0.207111
     65 C22         4.2650   -2.6180    2.1930 c         1 MOL      0.748361
     66 O11         3.9190   -2.4420    1.0060 o         1 MOL     -0.749893
     67 O12         3.3570   -2.4900    3.0710 o         1 MOL     -0.749893
     68 H28         5.7730   -0.5970    0.5780 hn        1 MOL      0.126946
     69 H29         7.7180   -2.0830    2.2580 h1        1 MOL      0.080178
     70 H30         5.8050   -2.2940    3.6660 hc        1 MOL      0.081795
     71 H31         5.9100   -3.8210    2.8290 hc        1 MOL      0.081795
     72 N7          6.4000   -2.6240   -0.6490 n         1 MOL     -0.278329
     73 C23         6.4310   -3.4030   -1.8920 c3        1 MOL      0.000331
     74 C24         5.1430   -4.1660   -2.2720 c         1 MOL      0.373191
     75 O13         5.1140   -5.0010   -3.2120 o         1 MOL     -0.562882
     76 H32         5.7940   -1.8080   -0.6870 hn        1 MOL      0.298207
     77 H33         7.3070   -4.0430   -1.9840 h1        1 MOL      0.070682
     78 H34         6.5890   -2.7820   -2.7730 h1        1 MOL      0.070682
     79 N8          4.0310   -3.8850   -1.6510 n         1 MOL     -0.052054
     80 C25         2.7120   -4.4700   -1.8410 c3        1 MOL     -0.246229
     81 C26         1.6470   -3.4270   -1.7030 c         1 MOL      0.622911
     82 O14         1.8250   -2.5200   -0.8860 o         1 MOL     -0.634318
     83 C27         2.3980   -5.6300   -0.8310 c3        1 MOL      0.418876
     84 C28         3.2900   -6.8590   -1.0800 c3        1 MOL     -0.566912
     85 O15         2.5770   -5.2160    0.5250 oh        1 MOL     -0.559771
     86 H35         4.0360   -3.1160   -0.9990 hn        1 MOL      0.145858
     87 H36         2.6280   -4.7660   -2.8830 h1        1 MOL      0.118696
     88 H37         1.3420   -5.8860   -0.9030 h1        1 MOL      0.014843
     89 H38         3.0480   -4.3790    0.4270 ho        1 MOL      0.354184
     90 H39         3.0600   -7.6180   -0.3270 hc        1 MOL      0.155758
     91 H40         3.1910   -7.2210   -2.1020 hc        1 MOL      0.155758
     92 H41         4.3560   -6.6830   -0.9810 hc        1 MOL      0.155758
     93 N9          0.4460   -3.6420   -2.2850 n         1 MOL     -0.647257
     94 C29        -0.7610   -2.7360   -2.1710 c3        1 MOL      0.279529
     95 C30        -1.9050   -3.3780   -1.3980 c         1 MOL      0.533470
     96 O16        -2.3550   -4.5040   -1.8010 o         1 MOL     -0.560961
     97 C31        -1.0880   -2.2120   -3.6280 c3        1 MOL     -0.136230
     98 C32         0.0940   -1.1690   -3.8680 c3        1 MOL      0.005909
     99 C33        -2.4680   -1.5920   -3.8130 c3        1 MOL      0.092482
    100 C34        -0.0310   -0.4340   -5.2310 c3        1 MOL     -0.118068
    101 H42         0.4290   -4.3750   -2.9770 hn        1 MOL      0.306578
    102 H43        -0.5230   -1.8650   -1.5570 h1        1 MOL      0.020893
    103 H44        -1.0440   -3.0690   -4.2960 hc        1 MOL      0.060854
    104 H45         1.1290   -1.4940   -3.8520 hc        1 MOL      0.050511
    105 H46         0.0370   -0.4210   -3.0770 hc        1 MOL      0.050511
    106 H47        -2.7510   -0.8870   -3.0320 hc        1 MOL     -0.028409
    107 H48        -2.5310   -1.1270   -4.7970 hc        1 MOL     -0.028409
    108 H49        -3.1470   -2.4430   -3.8780 hc        1 MOL     -0.028409
    109 H50        -0.0780   -1.1530   -6.0450 hc        1 MOL      0.025060
    110 H51        -0.8700    0.2460   -5.1580 hc        1 MOL      0.025060
    111 H52         0.8470    0.2050   -5.3840 hc        1 MOL      0.025060
    112 N10        -2.4170   -2.6690   -0.3760 n         1 MOL     -0.344010
    113 C35        -3.6100   -2.9270    0.3500 c3        1 MOL      0.009914
    114 C36        -4.8820   -2.5170   -0.3830 c         1 MOL      0.331502
    115 O17        -4.8670   -1.8570   -1.4120 o         1 MOL     -0.332938
    116 C37        -3.6710   -2.2250    1.7310 c3        1 MOL     -0.093585
    117 C38        -2.4940   -2.6440    2.6170 c3        1 MOL     -0.181192
    118 O18        -3.8160   -0.7870    1.6290 oh        1 MOL     -0.272277
    119 H53        -1.8180   -2.0080    0.1010 hn        1 MOL      0.275870
    120 H54        -3.6260   -4.0100    0.5000 h1        1 MOL      0.093425
    121 H55        -4.5960   -2.6350    2.1330 h1        1 MOL      0.048342
    122 H56        -3.5570   -0.3770    2.4600 ho        1 MOL      0.343075
    123 H57        -2.6020   -2.1630    3.5910 hc        1 MOL      0.078013
    124 H58        -2.3240   -3.6870    2.8700 hc        1 MOL      0.078013
    125 H59        -1.5500   -2.2090    2.2640 hc        1 MOL      0.078013
    126 N11        -6.0300   -2.7750    0.1800 n         1 MOL     -0.278732
    127 C39        -7.3760   -2.1660   -0.1880 c3        1 MOL     -0.029407
    128 C40        -7.3340   -0.6090   -0.2800 c         1 MOL      0.150057
    129 O19        -7.8070   -0.0280   -1.2740 o         1 MOL     -0.441298
    130 C41        -8.4990   -2.6250    0.7170 c3        1 MOL      0.271011
    131 C42        -9.0170   -4.0280    0.4220 c3        1 MOL     -0.558742
    132 O20        -8.1310   -2.5120    2.0460 oh        1 MOL     -0.615580
    133 H60        -6.0570   -3.5260    0.8530 hn        1 MOL      0.271146
    134 H61        -7.6280   -2.4950   -1.1920 h1        1 MOL      0.125310
    135 H62        -9.3570   -1.9670    0.5710 h1        1 MOL      0.042271
    136 H63        -8.9520   -2.4470    2.5400 ho        1 MOL      0.411827
    137 H64        -9.7990   -4.2130    1.1440 hc        1 MOL      0.162126
    138 H65        -9.3310   -4.1960   -0.6100 hc        1 MOL      0.162126
    139 H66        -8.1740   -4.7190    0.5140 hc        1 MOL      0.162126
    140 N12        -6.7150    0.0640    0.6840 n         1 MOL      0.037828
    141 C43        -6.7000    1.5950    0.8360 c3        1 MOL     -0.026165
    142 C44        -5.7960    2.1710   -0.3470 c         1 MOL      0.285536
    143 O21        -6.2090    3.1050   -1.0800 o         1 MOL     -0.475741
    144 C45        -6.0930    2.0830    2.2020 c3        1 MOL     -0.076249
    145 C46        -6.4700    1.2710    3.4750 c3        1 MOL      0.008390
    146 C47        -8.0310    1.1320    3.6070 c3        1 MOL      0.088492
    147 C48        -8.3320    0.9100    5.0620 c3        1 MOL      0.019148
    148 N13        -9.7610    1.1370    5.2910 n4        1 MOL     -0.272584
    149 H67        -6.2680   -0.4740    1.4120 hn        1 MOL      0.148502
    150 H68        -7.7170    1.9750    0.7720 h1        1 MOL      0.068237
    151 H69        -6.4160    3.1020    2.4250 hc        1 MOL      0.069251
    152 H70        -5.0070    2.1550    2.1250 hc        1 MOL      0.069251
    153 H71        -6.0590    1.8480    4.3020 hc        1 MOL     -0.014123
    154 H72        -5.8910    0.3530    3.4110 hc        1 MOL     -0.014123
    155 H73        -8.2920    0.2550    3.0330 hc        1 MOL     -0.018475
    156 H74        -8.4850    2.0210    3.1740 hc        1 MOL     -0.018475
    157 H75        -7.6980    1.6680    5.5270 hx        1 MOL      0.078569
    158 H76        -7.8930   -0.0420    5.3460 hx        1 MOL      0.078569
    159 H77        -9.8960    1.1550    6.2930 hn        1 MOL      0.280197
    160 H78       -10.1100    1.9670    4.8430 hn        1 MOL      0.280197
    161 H79       -10.3490    0.3610    5.0050 hn        1 MOL      0.280197
    162 N14        -4.6870    1.4620   -0.5540 n         1 MOL     -0.031762
    163 C49        -3.6910    1.8810   -1.6010 c3        1 MOL     -0.050613
    164 C50        -4.2690    1.5780   -3.0260 c         1 MOL      0.422860
    165 O22        -4.1980    2.4540   -3.9000 o         1 MOL     -0.547189
    166 C51        -2.3850    1.1540   -1.3460 c3        1 MOL      0.004708
    167 C52        -1.7770    1.6080   -0.0090 c3        1 MOL     -0.105531
    168 C53        -0.6430    0.7640    0.5800 c         1 MOL      0.630522
    169 O23        -0.4640   -0.4450    0.3970 o         1 MOL     -0.695169
    170 O24         0.2350    1.3860    1.2030 o         1 MOL     -0.695169
    171 H80        -4.4780    0.6650    0.0380 hn        1 MOL     -0.037177
    172 H81        -3.5120    2.9390   -1.4780 h1        1 MOL      0.071093
    173 H82        -1.7940    1.1550   -2.2600 hc        1 MOL      0.060548
    174 H83        -2.5910    0.1070   -1.1720 hc        1 MOL      0.060548
    175 H84        -2.5110    1.7050    0.7870 hc        1 MOL      0.018507
    176 H85        -1.5130    2.6520   -0.1890 hc        1 MOL      0.018507
    177 N15        -4.9600    0.4430   -3.1720 n         1 MOL      0.064326
    178 C54        -5.7540    0.1100   -4.2910 c3        1 MOL     -0.319904
    179 H86        -6.7990    0.3360   -4.0750 h1        1 MOL      0.102489
    180 H87        -5.4300    0.6920   -5.1540 h1        1 MOL      0.102489
    181 H88        -5.6500   -0.9530   -4.5080 h1        1 MOL      0.102489
    182 H89        -4.8840   -0.2600   -2.4590 hn        1 MOL      0.100600
    183 Ca1         1.8870   -0.9920    1.4320 Ca        1 MOL      1.800936
    184 O25         0.7900   -3.5050    1.5540 oh        1 MOL     -0.866197
    185 H90         0.5950   -3.8400    2.4310 ho        1 MOL      0.407982
    186 H91         1.2570   -4.2070    1.1200 ho        1 MOL      0.407982
    187 O26         0.3410   -1.1090    3.4990 oh        1 MOL     -0.866197
    188 H92         0.0050   -1.5280    4.2890 ho        1 MOL      0.407982
    189 H93         0.6610   -0.2640    3.8050 ho        1 MOL      0.407982
@<TRIPOS>BOND
     1    1    2 1   
     2    1    4 1   
     3    1    5 1   
     4    1    6 1   
     5    2    3 2   
     6    2    7 1   
     7    7    8 1   
     8    7   15 1   
     9    8    9 1   
    10    8   11 1   
    11    8   16 1   
    12    9   10 2   
    13    9   19 1   
    14   11   12 1   
    15   11   17 1   
    16   11   18 1   
    17   12   13 1   
    18   12   14 1   
    19   19   20 1   
    20   19   28 1   
    21   20   21 1   
    22   20   23 1   
    23   20   29 1   
    24   21   22 2   
    25   21   41 1   
    26   23   24 1   
    27   23   30 1   
    28   23   31 1   
    29   24   25 1   
    30   24   32 1   
    31   24   33 1   
    32   25   26 1   
    33   25   34 1   
    34   25   35 1   
    35   26   27 1   
    36   26   36 1   
    37   26   37 1   
    38   27   38 1   
    39   27   39 1   
    40   27   40 1   
    41   41   42 1   
    42   41   49 1   
    43   42   43 1   
    44   42   45 1   
    45   42   50 1   
    46   43   44 2   
    47   43   53 1   
    48   45   46 1   
    49   45   51 1   
    50   45   52 1   
    51   46   47 1   
    52   46   48 1   
    53   53   54 1   
    54   53   57 1   
    55   54   55 1   
    56   54   58 1   
    57   54   59 1   
    58   55   56 2   
    59   55   60 1   
    60   60   61 1   
    61   60   68 1   
    62   61   62 1   
    63   61   64 1   
    64   61   69 1   
    65   62   63 2   
    66   62   72 1   
    67   64   65 1   
    68   64   70 1   
    69   64   71 1   
    70   65   66 1   
    71   65   67 1   
    72   72   73 1   
    73   72   76 1   
    74   73   74 1   
    75   73   77 1   
    76   73   78 1   
    77   74   75 2   
    78   74   79 1   
    79   79   80 1   
    80   79   86 1   
    81   80   81 1   
    82   80   83 1   
    83   80   87 1   
    84   81   82 2   
    85   81   93 1   
    86   83   84 1   
    87   83   85 1   
    88   83   88 1   
    89   84   90 1   
    90   84   91 1   
    91   84   92 1   
    92   85   89 1   
    93   93   94 1   
    94   93  101 1   
    95   94   95 1   
    96   94   97 1   
    97   94  102 1   
    98   95   96 2   
    99   95  112 1   
   100   97   98 1   
   101   97   99 1   
   102   97  103 1   
   103   98  100 1   
   104   98  104 1   
   105   98  105 1   
   106   99  106 1   
   107   99  107 1   
   108   99  108 1   
   109  100  109 1   
   110  100  110 1   
   111  100  111 1   
   112  112  113 1   
   113  112  119 1   
   114  113  114 1   
   115  113  116 1   
   116  113  120 1   
   117  114  115 2   
   118  114  126 1   
   119  116  117 1   
   120  116  118 1   
   121  116  121 1   
   122  117  123 1   
   123  117  124 1   
   124  117  125 1   
   125  118  122 1   
   126  126  127 1   
   127  126  133 1   
   128  127  128 1   
   129  127  130 1   
   130  127  134 1   
   131  128  129 2   
   132  128  140 1   
   133  130  131 1   
   134  130  132 1   
   135  130  135 1   
   136  131  137 1   
   137  131  138 1   
   138  131  139 1   
   139  132  136 1   
   140  140  141 1   
   141  140  149 1   
   142  141  142 1   
   143  141  144 1   
   144  141  150 1   
   145  142  143 2   
   146  142  162 1   
   147  144  145 1   
   148  144  151 1   
   149  144  152 1   
   150  145  146 1   
   151  145  153 1   
   152  145  154 1   
   153  146  147 1   
   154  146  155 1   
   155  146  156 1   
   156  147  148 1   
   157  147  157 1   
   158  147  158 1   
   159  148  159 1   
   160  148  160 1   
   161  148  161 1   
   162  162  163 1   
   163  162  171 1   
   164  163  164 1   
   165  163  166 1   
   166  163  172 1   
   167  164  165 2   
   168  164  177 1   
   169  166  167 1   
   170  166  173 1   
   171  166  174 1   
   172  167  168 1   
   173  167  175 1   
   174  167  176 1   
   175  168  169 1   
   176  168  170 1   
   177  177  178 1   
   178  177  182 1   
   179  178  179 1   
   180  178  180 1   
   181  178  181 1   
   182  184  185 1   
   183  184  186 1   
   184  187  188 1   
   185  187  189 1   
@<TRIPOS>SUBSTRUCTURE
     1 MOL         1 TEMP              0 ****  ****    0 ROOT
