@<TRIPOS>MOLECULE
MOL
  189   185     1     0     0
SMALL
resp


@<TRIPOS>ATOM
      1 C1          0.0480   -1.8480    6.3110 c3        1 MOL     -0.441254
      2 C2          0.4660   -1.7810    4.8520 c         1 MOL      0.747852
      3 O1          0.4220   -0.7110    4.2250 o         1 MOL     -0.548265
      4 H1          0.4340   -2.7650    6.7580 hc        1 MOL      0.112547
      5 H2          0.4520   -0.9870    6.8440 hc        1 MOL      0.112547
      6 H3         -1.0400   -1.8420    6.3790 hc        1 MOL      0.112547
      7 N1          0.9290   -3.0090    4.3460 n         1 MOL     -0.667446
      8 C3          1.6940   -3.0620    3.0450 c3        1 MOL      0.174422
      9 C4          1.6850   -4.4870    2.4360 c         1 MOL      0.533755
     10 O2          1.5430   -5.4800    3.1540 o         1 MOL     -0.590646
     11 C5          3.1270   -2.7220    3.3670 c3        1 MOL     -0.164134
     12 C6          3.9140   -2.3470    2.1130 c         1 MOL      0.672957
     13 O3          5.1530   -2.1510    2.2430 o         1 MOL     -0.652367
     14 O4          3.3410   -2.2580    0.9630 o         1 MOL     -0.652367
     15 H4          1.0550   -3.7380    5.0450 hn        1 MOL      0.343597
     16 H5          1.2860   -2.3160    2.3600 h1        1 MOL      0.098489
     17 H6          3.5960   -3.5670    3.8650 hc        1 MOL      0.027022
     18 H7          3.1230   -1.8570    4.0220 hc        1 MOL      0.027022
     19 N2          1.8670   -4.5750    1.1220 n         1 MOL     -0.243486
     20 C7          2.3000   -5.8250    0.3260 c3        1 MOL     -0.204973
     21 C8          3.3910   -5.5050   -0.7680 c         1 MOL      0.494439
     22 O5          3.6030   -6.3850   -1.6000 o         1 MOL     -0.558868
     23 C9          1.0300   -6.5350   -0.2600 c3        1 MOL      0.377075
     24 C10         0.3830   -5.5140   -1.2900 c3        1 MOL      0.076965
     25 C11         0.0550   -7.0700    0.8340 c3        1 MOL     -0.270554
     26 C12        -0.4520   -6.2410   -2.3380 c3        1 MOL     -0.522938
     27 H8          1.8140   -3.6950    0.6440 hn        1 MOL      0.080537
     28 H9          2.7740   -6.5360    1.0040 h1        1 MOL      0.104258
     29 H10         1.4110   -7.3660   -0.8460 hc        1 MOL     -0.077784
     30 H11         1.1890   -4.9620   -1.7560 hc        1 MOL      0.057295
     31 H12        -0.1560   -4.7500   -0.7280 hc        1 MOL      0.057295
     32 H13        -0.2350   -6.2750    1.5140 hc        1 MOL      0.042559
     33 H14        -0.8890   -7.3460    0.3440 hc        1 MOL      0.042559
     34 H15         0.5470   -7.9590    1.2270 hc        1 MOL      0.042559
     35 H16        -1.2880   -6.6790   -1.7890 hc        1 MOL      0.129530
     36 H17        -0.8290   -5.4320   -2.9730 hc        1 MOL      0.129530
     37 H18         0.2240   -6.9140   -2.8620 hc        1 MOL      0.129530
     38 N3          3.9490   -4.3030   -0.8960 n         1 MOL     -0.485627
     39 C13         4.8050   -3.9820   -2.0720 c3        1 MOL     -0.020264
     40 C14         6.0260   -3.1070   -1.7650 c         1 MOL      0.466234
     41 O6          6.8630   -2.8970   -2.6250 o         1 MOL     -0.566475
     42 C15         4.0090   -3.4630   -3.1990 c3        1 MOL     -0.106807
     43 C16         3.2320   -2.1840   -2.9360 c         1 MOL      0.651564
     44 O7          3.4710   -1.5570   -1.9330 o         1 MOL     -0.703873
     45 O8          2.4150   -1.7610   -3.8580 o         1 MOL     -0.703873
     46 H19         3.5950   -3.6020   -0.2670 hn        1 MOL      0.421272
     47 H20         5.2040   -4.9390   -2.3810 h1        1 MOL      0.097249
     48 H21         3.2550   -4.1940   -3.5110 hc        1 MOL      0.056492
     49 H22         4.4850   -3.4310   -4.1860 hc        1 MOL      0.056492
     50 N4          6.0880   -2.5500   -0.5440 n         1 MOL     -0.209571
     51 C17         7.2270   -1.7820   -0.1180 c3        1 MOL     -0.215282
     52 C18         7.4120   -0.3570   -0.7400 c         1 MOL      0.556884
     53 O9          8.3580    0.3030   -0.3350 o         1 MOL     -0.637047
     54 H23         5.3460   -2.5860    0.1390 hn        1 MOL      0.124461
     55 H24         8.1470   -2.2790   -0.4070 h1        1 MOL      0.113083
     56 H25         7.2910   -1.8020    0.9700 h1        1 MOL      0.113083
     57 N5          6.4690    0.2380   -1.5030 n         1 MOL     -0.310046
     58 C19         6.6760    1.5460   -2.1380 c3        1 MOL      0.028021
     59 C20         6.7730    2.8200   -1.2800 c         1 MOL      0.414015
     60 O10         6.8170    3.9130   -1.8160 o         1 MOL     -0.548302
     61 C21         5.6460    1.7330   -3.2160 c3        1 MOL     -0.350192
     62 C22         4.2000    1.7260   -2.7140 c         1 MOL      0.903215
     63 O11         3.9070    1.6760   -1.5290 o         1 MOL     -0.731031
     64 O12         3.3410    1.8870   -3.5320 o         1 MOL     -0.731031
     65 H26         5.7050   -0.3250   -1.8500 hn        1 MOL      0.273995
     66 H27         7.5570    1.5030   -2.7690 h1        1 MOL      0.080671
     67 H28         5.7850    0.9670   -3.9910 hc        1 MOL      0.085667
     68 H29         5.7670    2.7460   -3.5990 hc        1 MOL      0.085667
     69 N6          6.7400    2.6490   -0.0130 n         1 MOL     -0.202454
     70 C23         6.7510    3.8210    0.9510 c3        1 MOL     -0.242605
     71 C24         5.4730    4.5220    1.1200 c         1 MOL      0.473734
     72 O13         5.4480    5.6180    1.8010 o         1 MOL     -0.612513
     73 H30         6.3570    1.7470    0.2320 hn        1 MOL      0.262008
     74 H31         7.4630    4.6040    0.6700 h1        1 MOL      0.128782
     75 H32         7.0250    3.4910    1.9590 h1        1 MOL      0.128782
     76 N7          4.3710    4.0350    0.6210 n         1 MOL     -0.104049
     77 C25         3.0110    4.6030    0.8460 c3        1 MOL     -0.235238
     78 C26         1.9110    3.5990    1.1170 c         1 MOL      0.397405
     79 O14         1.8810    2.4900    0.5390 o         1 MOL     -0.494669
     80 C27         2.5710    5.5220   -0.3120 c3        1 MOL      0.075971
     81 C28         3.4170    6.7600   -0.4610 c3        1 MOL     -0.294605
     82 C29         2.7400    7.7930   -1.4020 c         1 MOL      0.570434
     83 N8          3.0480    7.8760   -2.6650 n         1 MOL     -0.711110
     84 O15         1.8530    8.5530   -1.0070 o         1 MOL     -0.568526
     85 H33         4.4580    3.1350    0.1540 hn        1 MOL      0.178843
     86 H34         2.9390    5.3630    1.6240 h1        1 MOL      0.097425
     87 H35         1.5560    5.8350   -0.0710 hc        1 MOL      0.067276
     88 H36         2.5940    4.9470   -1.2400 hc        1 MOL      0.067276
     89 H37         4.3590    6.4460   -0.8890 hc        1 MOL      0.118082
     90 H38         3.5950    7.2850    0.4800 hc        1 MOL      0.118082
     91 H39         3.7760    7.2930   -3.0520 hn        1 MOL      0.341433
     92 H40         2.7010    8.6710   -3.1820 hn        1 MOL      0.341433
     93 N9          0.8940    4.0080    1.9340 n         1 MOL     -0.325460
     94 C30        -0.2840    3.1320    2.3210 c3        1 MOL     -0.189320
     95 C31        -1.4040    3.3270    1.3550 c         1 MOL      0.562540
     96 O16        -1.9200    4.4190    1.3250 o         1 MOL     -0.606747
     97 C32        -0.6800    3.3250    3.8040 c3        1 MOL      0.220915
     98 C33        -1.8890    2.4280    4.2460 c3        1 MOL     -0.267895
     99 C34         0.5010    3.0200    4.6790 c3        1 MOL     -0.267895
    100 H41         1.0530    4.8650    2.4340 hn        1 MOL      0.286901
    101 H42        -0.0600    2.0780    2.2050 h1        1 MOL      0.240991
    102 H43        -0.9460    4.3560    4.0080 hc        1 MOL      0.006278
    103 H44        -2.7650    2.7200    3.6740 hc        1 MOL      0.050969
    104 H45        -1.6680    1.3900    4.0210 hc        1 MOL      0.050969
    105 H46        -2.1150    2.5070    5.3090 hc        1 MOL      0.050969
    106 H47         0.0880    2.8420    5.6720 hc        1 MOL      0.050969
    107 H48         1.0570    2.1220    4.4000 hc        1 MOL      0.050969
    108 H49         1.1590    3.8880    4.6780 hc        1 MOL      0.050969
    109 N10        -1.7250    2.3030    0.5920 n         1 MOL     -0.100426
    110 C35        -2.7630    2.4100   -0.4620 c3        1 MOL     -0.043616
    111 C36        -4.1770    2.1160    0.1530 c         1 MOL      0.396280
    112 O17        -4.3090    1.4790    1.1820 o         1 MOL     -0.343208
    113 C37        -2.4240    1.2840   -1.4390 c3        1 MOL     -0.096358
    114 C38        -2.9870    1.4080   -2.8570 c         1 MOL      0.581567
    115 N11        -2.3630    0.8340   -3.8410 n         1 MOL     -0.769857
    116 O18        -4.0760    1.9610   -3.1400 o         1 MOL     -0.582869
    117 H50        -1.2650    1.4250    0.8060 hn        1 MOL      0.008094
    118 H51        -2.7590    3.4050   -0.8960 h1        1 MOL      0.094750
    119 H52        -2.5970    0.2900   -1.0350 hc        1 MOL      0.094425
    120 H53        -1.3410    1.2650   -1.5730 hc        1 MOL      0.094425
    121 H54        -1.4750    0.4170   -3.6430 hn        1 MOL      0.394146
    122 H55        -2.6650    0.8780   -4.8040 hn        1 MOL      0.394146
    123 N12        -5.2370    2.4690   -0.6020 n         1 MOL     -0.544018
    124 C39        -6.6810    2.0430   -0.3200 c3        1 MOL      0.396869
    125 C40        -6.7310    0.4950   -0.1970 c         1 MOL      0.489499
    126 O19        -7.4250   -0.0070    0.7150 o         1 MOL     -0.561205
    127 C41        -7.6520    2.7860   -1.1740 c3        1 MOL     -0.247928
    128 C42        -9.0630    2.1950   -1.1530 ca        1 MOL     -0.037909
    129 C43       -10.0010    2.5620   -0.1790 ca        1 MOL     -0.112247
    130 C44        -9.3850    1.2150   -2.1320 ca        1 MOL     -0.112247
    131 C45       -11.2750    1.9510   -0.1640 ca        1 MOL     -0.275476
    132 C46       -10.6410    0.5710   -2.0710 ca        1 MOL     -0.275476
    133 C47       -11.6180    0.9580   -1.0720 ca        1 MOL      0.355717
    134 O20       -12.8140    0.4560   -0.8670 oh        1 MOL     -0.517155
    135 H56        -5.0120    2.7880   -1.5360 hn        1 MOL      0.259206
    136 H57        -6.8610    2.3620    0.6990 h1        1 MOL     -0.007322
    137 H58        -7.2060    2.7790   -2.1730 hc        1 MOL      0.090742
    138 H59        -7.5570    3.8090   -0.8180 hc        1 MOL      0.090742
    139 H60        -9.8200    3.3900    0.4900 ha        1 MOL      0.125332
    140 H61        -8.6200    0.9420   -2.8510 ha        1 MOL      0.125332
    141 H62       -11.9880    2.3440    0.5490 ha        1 MOL      0.136086
    142 H63       -10.8540   -0.3170   -2.6500 ha        1 MOL      0.136086
    143 H64       -13.0740   -0.2300   -1.4920 ho        1 MOL      0.387113
    144 N13        -6.1210   -0.3170   -1.0540 n         1 MOL     -0.011098
    145 C48        -6.1270   -1.7450   -0.9580 c3        1 MOL     -0.431820
    146 C49        -5.1980   -2.2370    0.1410 c         1 MOL      0.601863
    147 O21        -5.1600   -3.4440    0.4110 o         1 MOL     -0.589422
    148 C50        -5.7570   -2.4500   -2.2990 c3        1 MOL      0.087044
    149 C51        -4.3790   -2.0890   -2.8910 c3        1 MOL     -0.236229
    150 C52        -4.2180   -2.4670   -4.3150 c         1 MOL      0.726608
    151 O22        -3.9410   -3.6430   -4.5620 o         1 MOL     -0.744485
    152 O23        -4.5270   -1.6830   -5.2460 o         1 MOL     -0.744485
    153 H65        -5.6360    0.0510   -1.8600 hn        1 MOL      0.147168
    154 H66        -7.1290   -2.0630   -0.6860 h1        1 MOL      0.162007
    155 H67        -6.5350   -2.1280   -2.9960 hc        1 MOL      0.033644
    156 H68        -5.9230   -3.5180   -2.3590 hc        1 MOL      0.033644
    157 H69        -3.5900   -2.5300   -2.2900 hc        1 MOL      0.072957
    158 H70        -4.1670   -1.0310   -2.7630 hc        1 MOL      0.072957
    159 N14        -4.5110   -1.3990    0.8820 n         1 MOL     -0.056284
    160 C53        -3.5410   -1.9000    1.9750 c3        1 MOL     -0.112065
    161 C54        -4.0430   -1.5300    3.3980 c         1 MOL      0.434479
    162 O24        -3.9110   -2.3190    4.3440 o         1 MOL     -0.569441
    163 C55        -2.1480   -1.3350    1.6970 c3        1 MOL      0.198209
    164 C56        -1.4960   -1.9360    0.4050 c3        1 MOL     -0.170671
    165 C57        -0.1490   -1.1790    0.1250 c         1 MOL      0.564512
    166 O25         0.7360   -1.7940   -0.4380 o         1 MOL     -0.624254
    167 O26         0.0220    0.0210    0.3400 o         1 MOL     -0.624254
    168 H71        -4.6370   -0.4310    0.6290 hn        1 MOL     -0.251135
    169 H72        -3.3660   -2.9760    2.0420 h1        1 MOL      0.105897
    170 H73        -1.5120   -1.5030    2.5590 hc        1 MOL     -0.015214
    171 H74        -2.2590   -0.2480    1.6390 hc        1 MOL     -0.015214
    172 H75        -2.1930   -1.8730   -0.4280 hc        1 MOL      0.043503
    173 H76        -1.1270   -2.9560    0.5440 hc        1 MOL      0.043503
    174 N15        -4.6240   -0.3640    3.5710 n         1 MOL     -0.110601
    175 C58        -5.0630    0.3290    4.8040 c3        1 MOL     -0.106877
    176 H77        -5.2330   -0.4040    5.5920 h1        1 MOL      0.060525
    177 H78        -4.2910    1.0310    5.1210 h1        1 MOL      0.060525
    178 H79        -5.9890    0.8710    4.6070 h1        1 MOL      0.060525
    179 H80        -4.8420    0.1790    2.7450 hn        1 MOL      0.154251
    180 Ca1         2.5170   -0.0440   -0.1580 Ca        1 MOL      1.716830
    181 O27         2.2780    0.2050    2.4600 oh        1 MOL     -0.881916
    182 H81         1.6510    0.0610    3.1610 ho        1 MOL      0.407939
    183 H82         2.9030    0.8320    2.8270 ho        1 MOL      0.407939
    184 O28         1.1630    0.4930   -2.5070 oh        1 MOL     -0.881916
    185 H83         1.2610   -0.2760   -3.0650 ho        1 MOL      0.407939
    186 H84         1.8860    1.0630   -2.7680 ho        1 MOL      0.407939
    187 O29         5.0780    0.4660    1.2840 oh        1 MOL     -0.881916
    188 H85         5.2050   -0.4490    1.5470 ho        1 MOL      0.407939
    189 H86         5.2610    0.9710    2.0790 ho        1 MOL      0.407939
@<TRIPOS>BOND
     1    1    2 1   
     2    1    4 1   
     3    1    5 1   
     4    1    6 1   
     5    2    3 2   
     6    2    7 1   
     7    7    8 1   
     8    7   15 1   
     9    8    9 1   
    10    8   11 1   
    11    8   16 1   
    12    9   10 2   
    13    9   19 1   
    14   11   12 1   
    15   11   17 1   
    16   11   18 1   
    17   12   13 1   
    18   12   14 1   
    19   19   20 1   
    20   19   27 1   
    21   20   21 1   
    22   20   23 1   
    23   20   28 1   
    24   21   22 2   
    25   21   38 1   
    26   23   24 1   
    27   23   25 1   
    28   23   29 1   
    29   24   26 1   
    30   24   30 1   
    31   24   31 1   
    32   25   32 1   
    33   25   33 1   
    34   25   34 1   
    35   26   35 1   
    36   26   36 1   
    37   26   37 1   
    38   38   39 1   
    39   38   46 1   
    40   39   40 1   
    41   39   42 1   
    42   39   47 1   
    43   40   41 2   
    44   40   50 1   
    45   42   43 1   
    46   42   48 1   
    47   42   49 1   
    48   43   44 1   
    49   43   45 1   
    50   50   51 1   
    51   50   54 1   
    52   51   52 1   
    53   51   55 1   
    54   51   56 1   
    55   52   53 2   
    56   52   57 1   
    57   57   58 1   
    58   57   65 1   
    59   58   59 1   
    60   58   61 1   
    61   58   66 1   
    62   59   60 2   
    63   59   69 1   
    64   61   62 1   
    65   61   67 1   
    66   61   68 1   
    67   62   63 1   
    68   62   64 1   
    69   69   70 1   
    70   69   73 1   
    71   70   71 1   
    72   70   74 1   
    73   70   75 1   
    74   71   72 2   
    75   71   76 1   
    76   76   77 1   
    77   76   85 1   
    78   77   78 1   
    79   77   80 1   
    80   77   86 1   
    81   78   79 2   
    82   78   93 1   
    83   80   81 1   
    84   80   87 1   
    85   80   88 1   
    86   81   82 1   
    87   81   89 1   
    88   81   90 1   
    89   82   83 1   
    90   82   84 2   
    91   83   91 1   
    92   83   92 1   
    93   93   94 1   
    94   93  100 1   
    95   94   95 1   
    96   94   97 1   
    97   94  101 1   
    98   95   96 2   
    99   95  109 1   
   100   97   98 1   
   101   97   99 1   
   102   97  102 1   
   103   98  103 1   
   104   98  104 1   
   105   98  105 1   
   106   99  106 1   
   107   99  107 1   
   108   99  108 1   
   109  109  110 1   
   110  109  117 1   
   111  110  111 1   
   112  110  113 1   
   113  110  118 1   
   114  111  112 2   
   115  111  123 1   
   116  113  114 1   
   117  113  119 1   
   118  113  120 1   
   119  114  115 1   
   120  114  116 2   
   121  115  121 1   
   122  115  122 1   
   123  123  124 1   
   124  123  135 1   
   125  124  125 1   
   126  124  127 1   
   127  124  136 1   
   128  125  126 2   
   129  125  144 1   
   130  127  128 1   
   131  127  137 1   
   132  127  138 1   
   133  128  129 ar  
   134  128  130 ar  
   135  129  131 ar  
   136  129  139 1   
   137  130  132 ar  
   138  130  140 1   
   139  131  133 ar  
   140  131  141 1   
   141  132  133 ar  
   142  132  142 1   
   143  133  134 1   
   144  134  143 1   
   145  144  145 1   
   146  144  153 1   
   147  145  146 1   
   148  145  148 1   
   149  145  154 1   
   150  146  147 2   
   151  146  159 1   
   152  148  149 1   
   153  148  155 1   
   154  148  156 1   
   155  149  150 1   
   156  149  157 1   
   157  149  158 1   
   158  150  151 1   
   159  150  152 1   
   160  159  160 1   
   161  159  168 1   
   162  160  161 1   
   163  160  163 1   
   164  160  169 1   
   165  161  162 2   
   166  161  174 1   
   167  163  164 1   
   168  163  170 1   
   169  163  171 1   
   170  164  165 1   
   171  164  172 1   
   172  164  173 1   
   173  165  166 1   
   174  165  167 1   
   175  174  175 1   
   176  174  179 1   
   177  175  176 1   
   178  175  177 1   
   179  175  178 1   
   180  181  182 1   
   181  181  183 1   
   182  184  185 1   
   183  184  186 1   
   184  187  188 1   
   185  187  189 1   
@<TRIPOS>SUBSTRUCTURE
     1 MOL         1 TEMP              0 ****  ****    0 ROOT
