@<TRIPOS>MOLECULE
MOL
  186   183     1     0     0
SMALL
resp


@<TRIPOS>ATOM
      1 C1          0.8270   -1.9390    6.3960 c3        1 MOL     -0.321611
      2 C2          1.0700   -2.0670    4.8550 c         1 MOL      0.784678
      3 O1          0.3470   -2.8290    4.1670 o         1 MOL     -0.635302
      4 H1          1.7730   -2.0620    6.9230 hc        1 MOL      0.071839
      5 H2          0.4120   -0.9560    6.6190 hc        1 MOL      0.071839
      6 H3          0.1290   -2.7110    6.7190 hc        1 MOL      0.071839
      7 N1          2.0610   -1.3680    4.3410 n         1 MOL     -0.661688
      8 C3          2.6960   -1.5680    2.9820 c3        1 MOL      0.348143
      9 C4          3.1160   -3.0470    2.6730 c         1 MOL      0.387845
     10 O2          3.8450   -3.6270    3.4610 o         1 MOL     -0.578133
     11 C5          3.9990   -0.6580    2.9190 c3        1 MOL     -0.312876
     12 C6          4.6200   -0.6160    1.5470 c         1 MOL      0.867629
     13 O3          4.0330   -1.1590    0.5750 o         1 MOL     -0.698821
     14 O4          5.6880    0.0110    1.3050 o         1 MOL     -0.698821
     15 H4          2.6820   -0.8230    4.9210 hn        1 MOL      0.304415
     16 H5          1.9650   -1.2150    2.2670 h1        1 MOL      0.000858
     17 H6          4.7440   -0.9720    3.6450 hc        1 MOL      0.064439
     18 H7          3.7460    0.3670    3.2050 hc        1 MOL      0.064439
     19 N2          2.6790   -3.5280    1.5310 n         1 MOL     -0.040385
     20 C7          2.7720   -4.8790    1.0830 c3        1 MOL      0.015983
     21 C8          3.8580   -5.0610   -0.0020 c         1 MOL      0.452877
     22 O5          4.5360   -6.0790   -0.0330 o         1 MOL     -0.564739
     23 C9          1.3670   -5.3040    0.5400 c3        1 MOL      0.192166
     24 C10         0.2630   -5.1560    1.6460 c3        1 MOL      0.114737
     25 C11         1.4950   -6.7590    0.0470 c3        1 MOL     -0.612003
     26 C12        -1.0910   -5.7630    1.3000 c3        1 MOL     -0.222772
     27 H8          2.1200   -2.8560    1.0350 hn        1 MOL     -0.010559
     28 H9          3.1080   -5.5200    1.9070 h1        1 MOL      0.040327
     29 H10         1.1140   -4.6590   -0.3010 hc        1 MOL      0.033207
     30 H11         0.0880   -4.1270    1.9390 hc        1 MOL      0.001307
     31 H12         0.6230   -5.6020    2.5700 hc        1 MOL      0.001307
     32 H13         1.9850   -6.7910   -0.9210 hc        1 MOL      0.147325
     33 H14         2.0840   -7.3870    0.7140 hc        1 MOL      0.147325
     34 H15         0.5120   -7.1590   -0.2180 hc        1 MOL      0.147325
     35 H16        -1.0600   -6.7480    0.8430 hc        1 MOL      0.041251
     36 H17        -1.7520   -5.7380    2.1750 hc        1 MOL      0.041251
     37 H18        -1.5730   -5.1540    0.5390 hc        1 MOL      0.041251
     38 N3          3.9930   -4.0590   -0.9030 n         1 MOL     -0.322359
     39 C13         4.9910   -4.1180   -2.0510 c3        1 MOL      0.066310
     40 C14         6.3160   -3.2790   -1.8500 c         1 MOL      0.490680
     41 O6          7.3010   -3.5600   -2.4960 o         1 MOL     -0.569131
     42 C15         4.3670   -3.7510   -3.3890 c3        1 MOL     -0.102738
     43 C16         3.6670   -2.4150   -3.4510 c         1 MOL      0.730898
     44 O7          3.5670   -1.7140   -2.4190 o         1 MOL     -0.702254
     45 O8          3.1680   -2.0170   -4.4970 o         1 MOL     -0.702254
     46 H19         3.3550   -3.2910   -0.8000 hn        1 MOL      0.147706
     47 H20         5.3780   -5.1360   -2.1370 h1        1 MOL      0.051132
     48 H21         3.6950   -4.5560   -3.6800 hc        1 MOL      0.015037
     49 H22         5.1840   -3.7340   -4.1110 hc        1 MOL      0.015037
     50 N4          6.3710   -2.3790   -0.9120 n         1 MOL     -0.085200
     51 C17         7.6290   -1.7190   -0.5820 c3        1 MOL     -0.071624
     52 C18         7.9450   -0.4620   -1.3300 c         1 MOL      0.568877
     53 O9          8.8410   -0.4330   -2.2700 o         1 MOL     -0.584368
     54 H23         5.5710   -2.0090   -0.4270 hn        1 MOL      0.057785
     55 H24         8.4510   -2.4210   -0.7550 h1        1 MOL      0.028860
     56 H25         7.6960   -1.4490    0.4710 h1        1 MOL      0.028860
     57 N5          7.1990    0.6200   -1.0440 n         1 MOL     -0.497037
     58 C19         7.3020    1.9260   -1.6110 c3        1 MOL      0.125288
     59 C20         7.1270    2.9850   -0.4620 c         1 MOL      0.381787
     60 O10         7.2550    4.2030   -0.7520 o         1 MOL     -0.538852
     61 C21         6.1930    2.0120   -2.6850 c3        1 MOL     -0.154851
     62 C22         4.7510    1.7030   -2.3030 c         1 MOL      0.841364
     63 O11         3.8960    1.5690   -3.1590 o         1 MOL     -0.755267
     64 O12         4.4370    1.6620   -1.1460 o         1 MOL     -0.755267
     65 H26         6.4590    0.4910   -0.3690 hn        1 MOL      0.283469
     66 H27         8.2910    2.1230   -2.0400 h1        1 MOL      0.058612
     67 H28         6.3850    1.3030   -3.4870 hc        1 MOL      0.037917
     68 H29         6.2290    3.0020   -3.1470 hc        1 MOL      0.037917
     69 N6          6.8520    2.6480    0.8120 n         1 MOL     -0.212573
     70 C23         6.5880    3.6110    1.8810 c3        1 MOL     -0.236587
     71 C24         5.2920    4.3590    1.7060 c         1 MOL      0.567942
     72 O13         5.2360    5.4610    2.1510 o         1 MOL     -0.554909
     73 H30         6.7700    1.6550    0.9740 hn        1 MOL      0.202113
     74 H31         7.3060    4.4230    1.7910 h1        1 MOL      0.111512
     75 H32         6.6140    3.1600    2.8720 h1        1 MOL      0.111512
     76 N7          4.2790    3.7600    0.9720 n         1 MOL     -0.348417
     77 C25         2.8870    4.2210    0.9130 c3        1 MOL      0.058065
     78 C26         1.9170    3.0660    1.1850 c         1 MOL      0.547787
     79 O14         2.1490    1.9140    0.8380 o         1 MOL     -0.649236
     80 C27         2.6400    4.8690   -0.4230 c3        1 MOL      0.137696
     81 C28         3.2570    6.1800   -0.5730 c3        1 MOL     -0.219791
     82 C29         2.4440    7.1540   -1.3690 c         1 MOL      0.681732
     83 N8          2.0590    6.7530   -2.5970 n         1 MOL     -0.831332
     84 O15         2.1710    8.2720   -0.9920 o         1 MOL     -0.583205
     85 H33         4.5020    2.9210    0.4510 hn        1 MOL      0.247467
     86 H34         2.6570    4.9480    1.6850 h1        1 MOL      0.018046
     87 H35         1.5610    4.8860   -0.6150 hc        1 MOL     -0.047537
     88 H36         2.9810    4.2440   -1.2510 hc        1 MOL     -0.047537
     89 H37         4.2020    6.1880   -1.1080 hc        1 MOL      0.077594
     90 H38         3.3670    6.7090    0.3770 hc        1 MOL      0.077594
     91 H39         2.3980    5.8470   -2.8680 hn        1 MOL      0.359556
     92 H40         1.6540    7.4580   -3.2050 hn        1 MOL      0.359556
     93 N9          0.7950    3.4890    1.8100 n         1 MOL     -0.429138
     94 C30        -0.3640    2.6090    2.1430 c3        1 MOL     -0.038977
     95 C31        -1.5070    3.1610    1.3390 c         1 MOL      0.442731
     96 O16        -1.9600    4.2780    1.5430 o         1 MOL     -0.549550
     97 C32        -0.6230    2.5530    3.6270 c3        1 MOL      0.093127
     98 C33        -1.8090    1.6100    3.9770 c3        1 MOL     -0.153268
     99 C34         0.6120    1.9240    4.2890 c3        1 MOL     -0.153268
    100 H41         0.6880    4.4830    1.9400 hn        1 MOL      0.293698
    101 H42        -0.1320    1.6010    1.7680 h1        1 MOL      0.170878
    102 H43        -0.8430    3.5480    4.0130 hc        1 MOL      0.023446
    103 H44        -2.7880    2.0970    3.8970 hc        1 MOL      0.028766
    104 H45        -1.8940    0.6910    3.4070 hc        1 MOL      0.028766
    105 H46        -1.8120    1.4760    5.0590 hc        1 MOL      0.028766
    106 H47         1.5040    2.5250    4.1150 hc        1 MOL      0.028766
    107 H48         0.5230    1.8960    5.3830 hc        1 MOL      0.028766
    108 H49         0.8460    0.8990    3.9890 hc        1 MOL      0.028766
    109 N10        -1.9460    2.3850    0.3070 n         1 MOL     -0.293210
    110 C35        -3.0300    2.5910   -0.6380 c3        1 MOL      0.160071
    111 C36        -4.3040    1.9940    0.0460 c         1 MOL      0.327220
    112 O17        -4.2770    1.2370    1.0330 o         1 MOL     -0.334624
    113 C37        -2.7370    1.7150   -1.8750 c3        1 MOL     -0.329399
    114 C38        -3.8970    1.8430   -2.9360 c         1 MOL      0.708013
    115 N11        -4.0440    2.9810   -3.5310 n         1 MOL     -0.748433
    116 O18        -4.6520    0.9590   -3.2570 o         1 MOL     -0.522579
    117 H50        -1.5350    1.4650    0.3040 hn        1 MOL      0.243693
    118 H51        -3.2990    3.6140   -0.8840 h1        1 MOL      0.026067
    119 H52        -2.7460    0.6690   -1.5900 hc        1 MOL      0.109603
    120 H53        -1.7570    2.0330   -2.2310 hc        1 MOL      0.109603
    121 H54        -3.5730    3.8310   -3.2750 hn        1 MOL      0.343396
    122 H55        -4.7930    3.0750   -4.2120 hn        1 MOL      0.343396
    123 N12        -5.4320    2.4190   -0.5540 n         1 MOL     -0.415321
    124 C39        -6.7430    1.8590   -0.1730 c3        1 MOL      0.223200
    125 C40        -6.7410    0.3050   -0.1190 c         1 MOL      0.520230
    126 O19        -7.1130   -0.3290    0.8330 o         1 MOL     -0.554928
    127 C41        -7.7150    2.5420   -1.1320 c3        1 MOL     -0.284115
    128 C42        -9.1550    2.1240   -0.8210 ca        1 MOL      0.290689
    129 C43        -9.7710    2.6320    0.3230 ca        1 MOL     -0.366750
    130 C44        -9.9510    1.3890   -1.7230 ca        1 MOL     -0.366750
    131 C45       -11.0190    2.1170    0.7180 ca        1 MOL     -0.111134
    132 C46       -11.2640    0.9620   -1.4000 ca        1 MOL     -0.111134
    133 C47       -11.8480    1.3470   -0.2020 ca        1 MOL      0.217568
    134 O20       -13.0860    0.9260    0.0540 oh        1 MOL     -0.489473
    135 H56        -5.3370    3.0390   -1.3390 hn        1 MOL      0.224254
    136 H57        -6.9910    2.2560    0.8060 h1        1 MOL      0.035471
    137 H58        -7.3830    2.2470   -2.1340 hc        1 MOL      0.079559
    138 H59        -7.6560    3.6200   -1.0490 hc        1 MOL      0.079559
    139 H60        -9.2630    3.3100    1.0010 ha        1 MOL      0.177775
    140 H61        -9.6070    1.0880   -2.7060 ha        1 MOL      0.177775
    141 H62       -11.4950    2.4210    1.6310 ha        1 MOL      0.115022
    142 H63       -11.7320    0.2880   -2.1010 ha        1 MOL      0.115022
    143 H64       -13.3670    0.2830   -0.6040 ho        1 MOL      0.373465
    144 N13        -6.3000   -0.3610   -1.1750 n         1 MOL     -0.397334
    145 C48        -6.1780   -1.8830   -1.1520 c3        1 MOL      0.158977
    146 C49        -5.3420   -2.5060   -0.0950 c         1 MOL      0.305143
    147 O21        -5.6210   -3.6690    0.2460 o         1 MOL     -0.528594
    148 C50        -5.6300   -2.2950   -2.5340 c3        1 MOL     -0.094827
    149 C51        -5.4810   -3.8090   -2.8080 c3        1 MOL     -0.209110
    150 C52        -5.0390   -4.1330   -4.2310 c         1 MOL      0.772489
    151 O22        -5.5750   -3.6140   -5.2070 o         1 MOL     -0.749440
    152 O23        -4.1530   -4.9860   -4.4230 o         1 MOL     -0.749440
    153 H65        -5.8940    0.1380   -1.9530 hn        1 MOL      0.204022
    154 H66        -7.1910   -2.2560   -0.9960 h1        1 MOL      0.071047
    155 H67        -4.6590   -1.8450   -2.7250 hc        1 MOL      0.028804
    156 H68        -6.4160   -1.9350   -3.2120 hc        1 MOL      0.028804
    157 H69        -6.4520   -4.2760   -2.6170 hc        1 MOL      0.026735
    158 H70        -4.8160   -4.2890   -2.1000 hc        1 MOL      0.026735
    159 N14        -4.4640   -1.7650    0.5180 n         1 MOL      0.031610
    160 C53        -3.6010   -2.1520    1.6590 c3        1 MOL     -0.043095
    161 C54        -4.2050   -1.7790    3.0240 c         1 MOL      0.394478
    162 O24        -4.2510   -2.6210    3.9230 o         1 MOL     -0.542810
    163 C55        -2.1980   -1.5790    1.5540 c3        1 MOL      0.080359
    164 C56        -1.4830   -2.0360    0.2900 c3        1 MOL     -0.058497
    165 C57        -0.2550   -1.1920    0.0660 c         1 MOL      0.639560
    166 O25         0.8800   -1.7520    0.1460 o         1 MOL     -0.698240
    167 O26        -0.3230    0.0180   -0.2100 o         1 MOL     -0.698240
    168 H71        -4.3460   -0.8630    0.0690 hn        1 MOL      0.040764
    169 H72        -3.6080   -3.2440    1.6920 h1        1 MOL      0.091411
    170 H73        -1.5680   -1.7240    2.4390 hc        1 MOL      0.031866
    171 H74        -2.3360   -0.4960    1.5310 hc        1 MOL      0.031866
    172 H75        -2.1410   -1.8270   -0.5460 hc        1 MOL      0.032151
    173 H76        -1.1660   -3.0760    0.3210 hc        1 MOL      0.032151
    174 N15        -4.7470   -0.5510    3.1720 n         1 MOL     -0.041169
    175 C58        -5.5580   -0.1260    4.3590 c3        1 MOL     -0.225990
    176 H77        -6.4890    0.3250    4.0180 h1        1 MOL      0.083239
    177 H78        -5.7800   -0.9960    4.9780 h1        1 MOL      0.083239
    178 H79        -4.9940    0.6010    4.9430 h1        1 MOL      0.083239
    179 H80        -4.8010   -0.0080    2.3220 hn        1 MOL      0.046984
    180 Ca1         2.3330    0.0100   -0.9690 Ca        1 MOL      1.747911
    181 O27         1.4050    2.2420   -2.1810 oh        1 MOL     -0.804068
    182 H81         0.7040    2.8860   -2.2830 ho        1 MOL      0.393746
    183 H82         2.1140    2.5720   -2.7210 ho        1 MOL      0.393746
    184 O28         0.6630   -0.2970   -2.9310 oh        1 MOL     -0.804068
    185 H83         0.9510   -0.2910   -3.8440 ho        1 MOL      0.393746
    186 H84        -0.2840   -0.3880   -2.9790 ho        1 MOL      0.393746
@<TRIPOS>BOND
     1    1    2 1   
     2    1    4 1   
     3    1    5 1   
     4    1    6 1   
     5    2    3 2   
     6    2    7 1   
     7    7    8 1   
     8    7   15 1   
     9    8    9 1   
    10    8   11 1   
    11    8   16 1   
    12    9   10 2   
    13    9   19 1   
    14   11   12 1   
    15   11   17 1   
    16   11   18 1   
    17   12   13 1   
    18   12   14 1   
    19   19   20 1   
    20   19   27 1   
    21   20   21 1   
    22   20   23 1   
    23   20   28 1   
    24   21   22 2   
    25   21   38 1   
    26   23   24 1   
    27   23   25 1   
    28   23   29 1   
    29   24   26 1   
    30   24   30 1   
    31   24   31 1   
    32   25   32 1   
    33   25   33 1   
    34   25   34 1   
    35   26   35 1   
    36   26   36 1   
    37   26   37 1   
    38   38   39 1   
    39   38   46 1   
    40   39   40 1   
    41   39   42 1   
    42   39   47 1   
    43   40   41 2   
    44   40   50 1   
    45   42   43 1   
    46   42   48 1   
    47   42   49 1   
    48   43   44 1   
    49   43   45 1   
    50   50   51 1   
    51   50   54 1   
    52   51   52 1   
    53   51   55 1   
    54   51   56 1   
    55   52   53 2   
    56   52   57 1   
    57   57   58 1   
    58   57   65 1   
    59   58   59 1   
    60   58   61 1   
    61   58   66 1   
    62   59   60 2   
    63   59   69 1   
    64   61   62 1   
    65   61   67 1   
    66   61   68 1   
    67   62   63 1   
    68   62   64 1   
    69   69   70 1   
    70   69   73 1   
    71   70   71 1   
    72   70   74 1   
    73   70   75 1   
    74   71   72 2   
    75   71   76 1   
    76   76   77 1   
    77   76   85 1   
    78   77   78 1   
    79   77   80 1   
    80   77   86 1   
    81   78   79 2   
    82   78   93 1   
    83   80   81 1   
    84   80   87 1   
    85   80   88 1   
    86   81   82 1   
    87   81   89 1   
    88   81   90 1   
    89   82   83 1   
    90   82   84 2   
    91   83   91 1   
    92   83   92 1   
    93   93   94 1   
    94   93  100 1   
    95   94   95 1   
    96   94   97 1   
    97   94  101 1   
    98   95   96 2   
    99   95  109 1   
   100   97   98 1   
   101   97   99 1   
   102   97  102 1   
   103   98  103 1   
   104   98  104 1   
   105   98  105 1   
   106   99  106 1   
   107   99  107 1   
   108   99  108 1   
   109  109  110 1   
   110  109  117 1   
   111  110  111 1   
   112  110  113 1   
   113  110  118 1   
   114  111  112 2   
   115  111  123 1   
   116  113  114 1   
   117  113  119 1   
   118  113  120 1   
   119  114  115 1   
   120  114  116 2   
   121  115  121 1   
   122  115  122 1   
   123  123  124 1   
   124  123  135 1   
   125  124  125 1   
   126  124  127 1   
   127  124  136 1   
   128  125  126 2   
   129  125  144 1   
   130  127  128 1   
   131  127  137 1   
   132  127  138 1   
   133  128  129 ar  
   134  128  130 ar  
   135  129  131 ar  
   136  129  139 1   
   137  130  132 ar  
   138  130  140 1   
   139  131  133 ar  
   140  131  141 1   
   141  132  133 ar  
   142  132  142 1   
   143  133  134 1   
   144  134  143 1   
   145  144  145 1   
   146  144  153 1   
   147  145  146 1   
   148  145  148 1   
   149  145  154 1   
   150  146  147 2   
   151  146  159 1   
   152  148  149 1   
   153  148  155 1   
   154  148  156 1   
   155  149  150 1   
   156  149  157 1   
   157  149  158 1   
   158  150  151 1   
   159  150  152 1   
   160  159  160 1   
   161  159  168 1   
   162  160  161 1   
   163  160  163 1   
   164  160  169 1   
   165  161  162 2   
   166  161  174 1   
   167  163  164 1   
   168  163  170 1   
   169  163  171 1   
   170  164  165 1   
   171  164  172 1   
   172  164  173 1   
   173  165  166 1   
   174  165  167 1   
   175  174  175 1   
   176  174  179 1   
   177  175  176 1   
   178  175  177 1   
   179  175  178 1   
   180  181  182 1   
   181  181  183 1   
   182  184  185 1   
   183  184  186 1   
@<TRIPOS>SUBSTRUCTURE
     1 MOL         1 TEMP              0 ****  ****    0 ROOT
