@<TRIPOS>MOLECULE
MOL
  183   181     1     0     0
SMALL
resp


@<TRIPOS>ATOM
      1 C1         -0.1790    1.9150    6.2610 c3        1 MOL     -0.441850
      2 C2         -0.7010    1.7140    4.8040 c         1 MOL      0.740328
      3 O1          0.0160    2.0870    3.8840 o         1 MOL     -0.553933
      4 H1         -1.0220    2.1080    6.9260 hc        1 MOL      0.102621
      5 H2          0.3420    1.0150    6.5880 hc        1 MOL      0.102621
      6 H3          0.5060    2.7620    6.2890 hc        1 MOL      0.102621
      7 N1         -1.9140    1.3170    4.6220 n         1 MOL     -0.640936
      8 C3         -2.4520    1.1510    3.2380 c3        1 MOL      0.224720
      9 C4         -2.7470    2.4920    2.6310 c         1 MOL      0.536555
     10 O2         -3.6530    3.1430    3.1600 o         1 MOL     -0.626083
     11 C5         -3.6390    0.1240    3.2700 c3        1 MOL     -0.341245
     12 C6         -4.3510    0.0260    1.8960 c         1 MOL      0.983548
     13 O3         -5.4190   -0.6200    1.7510 o         1 MOL     -0.760635
     14 O4         -3.8880    0.5160    0.8490 o         1 MOL     -0.760635
     15 H4         -2.5150    1.0540    5.3920 hn        1 MOL      0.339981
     16 H5         -1.6430    0.7260    2.6460 h1        1 MOL      0.045345
     17 H6         -4.3340    0.3780    4.0660 hc        1 MOL      0.062916
     18 H7         -3.1170   -0.8020    3.5530 hc        1 MOL      0.062916
     19 N2         -2.1880    2.8920    1.5360 n         1 MOL     -0.121568
     20 C7         -2.1990    4.3370    1.1520 c3        1 MOL     -0.022981
     21 C8         -3.3230    4.7300    0.2620 c         1 MOL      0.476626
     22 O5         -3.7470    5.8540    0.3300 o         1 MOL     -0.577420
     23 C9         -0.7760    4.7100    0.5950 c3        1 MOL      0.079051
     24 C10         0.2600    5.0070    1.7670 c3        1 MOL      0.012027
     25 C11        -0.7870    5.9110   -0.3570 c3        1 MOL     -0.263430
     26 C12         0.1970    6.3580    2.5360 c3        1 MOL     -0.138507
     27 H8         -1.5380    2.2820    1.0550 hn        1 MOL      0.054079
     28 H9         -2.4060    4.9020    2.0560 h1        1 MOL      0.076824
     29 H10        -0.3430    3.8950    0.0280 hc        1 MOL      0.055940
     30 H11         1.2940    5.0010    1.4400 hc        1 MOL      0.020979
     31 H12         0.1340    4.2250    2.5140 hc        1 MOL      0.020979
     32 H13        -1.2300    6.8280    0.0250 hc        1 MOL      0.066343
     33 H14         0.1930    6.2530   -0.7100 hc        1 MOL      0.066343
     34 H15        -1.2940    5.5670   -1.2530 hc        1 MOL      0.066343
     35 H16        -0.8070    6.4550    2.9630 hc        1 MOL      0.019769
     36 H17         0.9600    6.4420    3.3020 hc        1 MOL      0.019769
     37 H18         0.3080    7.2150    1.8760 hc        1 MOL      0.019769
     38 N3         -3.8800    3.7840   -0.5140 n         1 MOL     -0.239479
     39 C13        -5.0100    4.0970   -1.4080 c3        1 MOL     -0.021345
     40 C14        -6.3330    3.3810   -1.1650 c         1 MOL      0.436642
     41 O6         -7.3430    3.8030   -1.7560 o         1 MOL     -0.543051
     42 C15        -4.4860    3.9110   -2.8000 c3        1 MOL     -0.081101
     43 C16        -3.7340    2.6350   -3.0280 c         1 MOL      0.830629
     44 O7         -2.8830    2.5760   -3.9440 o         1 MOL     -0.739249
     45 O8         -3.9410    1.6890   -2.2590 o         1 MOL     -0.739249
     46 H19        -3.4890    2.8510   -0.4620 hn        1 MOL      0.103088
     47 H20        -5.2480    5.1590   -1.3470 h1        1 MOL      0.089108
     48 H21        -3.7820    4.7100   -3.0270 hc        1 MOL      0.003757
     49 H22        -5.2540    3.9660   -3.5780 hc        1 MOL      0.003757
     50 N4         -6.3300    2.3740   -0.2740 n         1 MOL     -0.045501
     51 C17        -7.5360    1.8310    0.2820 c3        1 MOL     -0.227907
     52 C18        -8.0270    0.5900   -0.4680 c         1 MOL      0.679048
     53 O9         -9.0400    0.6540   -1.1720 o         1 MOL     -0.601426
     54 H23        -5.4830    2.1300    0.2250 hn        1 MOL      0.127184
     55 H24        -8.3700    2.5020    0.1270 h1        1 MOL      0.066670
     56 H25        -7.5300    1.5410    1.3300 h1        1 MOL      0.066670
     57 N5         -7.3420   -0.5470   -0.3420 n         1 MOL     -0.537498
     58 C19        -7.7070   -1.8170   -0.9960 c3        1 MOL      0.173141
     59 C20        -7.5250   -3.0500   -0.0910 c         1 MOL      0.360419
     60 O10        -8.1440   -4.1120   -0.2720 o         1 MOL     -0.578689
     61 C21        -6.8020   -1.9200   -2.2820 c3        1 MOL     -0.237323
     62 C22        -5.3210   -1.5950   -2.1210 c         1 MOL      0.680505
     63 O11        -4.7290   -0.9940   -3.0430 o         1 MOL     -0.685840
     64 O12        -4.7170   -2.0120   -1.1110 o         1 MOL     -0.685840
     65 H26        -6.5360   -0.3910    0.2590 hn        1 MOL      0.238454
     66 H27        -8.7510   -1.8190   -1.3140 h1        1 MOL      0.047740
     67 H28        -7.2480   -1.3400   -3.0810 hc        1 MOL      0.067193
     68 H29        -6.7360   -2.9970   -2.4600 hc        1 MOL      0.067193
     69 N6         -6.6440   -2.9520    0.9070 n         1 MOL     -0.049331
     70 C23        -6.3830   -3.9340    1.9920 c3        1 MOL     -0.123822
     71 C24        -5.0080   -4.5140    1.9830 c         1 MOL      0.619376
     72 O13        -4.7380   -5.2660    2.9410 o         1 MOL     -0.625766
     73 H30        -6.1220   -2.0910    0.9190 hn        1 MOL      0.132497
     74 H31        -7.0750   -4.7760    1.8930 h1        1 MOL      0.063344
     75 H32        -6.5470   -3.4220    2.9390 h1        1 MOL      0.063344
     76 N7         -4.0480   -4.1000    1.1230 n         1 MOL     -0.311882
     77 C25        -2.6440   -4.4990    1.0660 c3        1 MOL     -0.084172
     78 C26        -1.7300   -3.2520    0.9360 c         1 MOL      0.693906
     79 O14        -1.9940   -2.1610    0.4630 o         1 MOL     -0.648453
     80 C27        -2.5710   -5.6000    0.0300 c3        1 MOL      0.085922
     81 C28        -2.8840   -5.2080   -1.4210 c3        1 MOL     -0.463243
     82 C29        -1.8160   -4.2520   -2.0360 c         1 MOL      0.715123
     83 N8         -0.6980   -4.7330   -2.3560 n         1 MOL     -0.737710
     84 O15        -1.9770   -3.0390   -2.0680 o         1 MOL     -0.624870
     85 H33        -4.3900   -3.4140    0.4650 hn        1 MOL      0.198625
     86 H34        -2.4120   -4.9460    2.0320 h1        1 MOL      0.065873
     87 H35        -3.2710   -6.3650    0.3550 hc        1 MOL      0.005312
     88 H36        -1.6060   -6.0780    0.1190 hc        1 MOL      0.005312
     89 H37        -3.8870   -4.7890   -1.5300 hc        1 MOL      0.134345
     90 H38        -2.9120   -6.1580   -1.9600 hc        1 MOL      0.134345
     91 H39        -0.5650   -5.7130   -2.1760 hn        1 MOL      0.352198
     92 H40        -0.0740   -4.0640   -2.7890 hn        1 MOL      0.352198
     93 N9         -0.5400   -3.4620    1.4870 n         1 MOL     -0.459234
     94 C30         0.6270   -2.5640    1.6540 c3        1 MOL     -0.057980
     95 C31         1.8710   -3.0970    0.8530 c         1 MOL      0.444635
     96 O16         2.4760   -4.1190    1.2130 o         1 MOL     -0.554023
     97 C32         0.9030   -2.4210    3.1620 c3        1 MOL      0.212309
     98 C33         2.0340   -1.4340    3.6160 c3        1 MOL     -0.219851
     99 C34        -0.3170   -2.0470    4.0120 c3        1 MOL     -0.219851
    100 H41        -0.2790   -4.3670    1.8540 hn        1 MOL      0.265917
    101 H42         0.3230   -1.5850    1.2700 h1        1 MOL      0.186310
    102 H43         1.1870   -3.3680    3.6060 hc        1 MOL     -0.040204
    103 H44         2.2960   -1.5950    4.6630 hc        1 MOL      0.046923
    104 H45         2.8710   -1.5460    2.9200 hc        1 MOL      0.046923
    105 H46         1.6810   -0.4140    3.5030 hc        1 MOL      0.046923
    106 H47        -0.6740   -1.1100    3.6010 hc        1 MOL      0.046923
    107 H48        -1.0770   -2.8220    4.1320 hc        1 MOL      0.046923
    108 H49        -0.0100   -1.8950    5.0410 hc        1 MOL      0.046923
    109 N10         2.0860   -2.4200   -0.2850 n         1 MOL     -0.257503
    110 C35         3.2370   -2.5960   -1.1410 c3        1 MOL      0.043348
    111 C36         4.4990   -1.9130   -0.4670 c         1 MOL      0.484267
    112 O17         4.3540   -1.1580    0.4910 o         1 MOL     -0.318108
    113 C37         3.0600   -1.9440   -2.5290 c3        1 MOL     -0.390226
    114 C38         1.8220   -2.4600   -3.2300 c         1 MOL      0.717038
    115 N11         0.6690   -1.9290   -2.9850 n         1 MOL     -0.692318
    116 O18         1.8750   -3.3120   -4.1620 o         1 MOL     -0.623691
    117 H50         1.4960   -1.6110   -0.4010 hn        1 MOL      0.234008
    118 H51         3.4750   -3.6540   -1.2560 h1        1 MOL      0.070945
    119 H52         3.9400   -2.1340   -3.1550 hc        1 MOL      0.102486
    120 H53         3.0140   -0.8640   -2.3800 hc        1 MOL      0.102486
    121 H54         0.6620   -1.0570   -2.4790 hn        1 MOL      0.346693
    122 H55        -0.1510   -1.9870   -3.5640 hn        1 MOL      0.346693
    123 N12         5.7290   -2.1340   -0.9830 n         1 MOL     -0.679951
    124 C39         6.9160   -1.5850   -0.3940 c3        1 MOL      0.245805
    125 C40         6.9500   -0.0360   -0.4590 c         1 MOL      0.421435
    126 O19         7.3090    0.6320    0.5050 o         1 MOL     -0.462059
    127 C41         8.1110   -2.2540   -0.9550 c3        1 MOL     -0.121110
    128 C42         9.4400   -1.9060   -0.2700 ca        1 MOL     -0.070735
    129 C43         9.6360   -2.2550    1.0420 ca        1 MOL     -0.034953
    130 C44        10.3900   -1.1480   -0.9120 ca        1 MOL     -0.034953
    131 C45        10.7140   -1.7590    1.7890 ca        1 MOL     -0.405633
    132 C46        11.5890   -0.7470   -0.2880 ca        1 MOL     -0.405633
    133 C47        11.6900   -0.9500    1.1280 ca        1 MOL      0.483327
    134 O20        12.7250   -0.4100    1.7730 oh        1 MOL     -0.523293
    135 H56         5.8950   -2.6840   -1.8020 hn        1 MOL      0.341247
    136 H57         6.8670   -1.7930    0.6770 h1        1 MOL      0.093635
    137 H58         8.2060   -2.0290   -2.0130 hc        1 MOL      0.042142
    138 H59         8.0580   -3.3390   -0.8690 hc        1 MOL      0.042142
    139 H60         8.8820   -2.8220    1.5760 ha        1 MOL      0.110639
    140 H61        10.1990   -0.8850   -1.9350 ha        1 MOL      0.110639
    141 H62        10.8180   -1.9150    2.8540 ha        1 MOL      0.175487
    142 H63        12.3310   -0.1590   -0.8150 ha        1 MOL      0.175487
    143 H64        13.2900    0.1320    1.2350 ho        1 MOL      0.370317
    144 N13         6.3730    0.4720   -1.6030 n         1 MOL     -0.356632
    145 C48         6.2180    1.9120   -1.8130 c3        1 MOL      0.000858
    146 C49         5.2370    2.5580   -0.7910 c         1 MOL      0.426637
    147 O21         5.2450    3.7270   -0.5800 o         1 MOL     -0.520795
    148 C50         5.8870    2.2490   -3.2760 c3        1 MOL      0.000579
    149 C51         4.6210    1.5810   -3.8830 c3        1 MOL     -0.060557
    150 C52         4.1700    2.2370   -5.1580 c         1 MOL      0.754133
    151 O22         4.7900    3.2260   -5.6260 o         1 MOL     -0.741962
    152 O23         3.0900    1.9120   -5.6010 o         1 MOL     -0.741962
    153 H65         6.1940   -0.1840   -2.3530 hn        1 MOL      0.301187
    154 H66         7.2340    2.2830   -1.7150 h1        1 MOL      0.053112
    155 H67         6.7380    1.8780   -3.8540 hc        1 MOL     -0.008453
    156 H68         5.7850    3.3320   -3.2610 hc        1 MOL     -0.008453
    157 H69         3.8740    1.7050   -3.0970 hc        1 MOL     -0.041925
    158 H70         4.9080    0.5390   -4.0480 hc        1 MOL     -0.041925
    159 N14         4.4810    1.7330   -0.0970 n         1 MOL     -0.067923
    160 C53         3.6900    2.1360    1.0070 c3        1 MOL     -0.173598
    161 C54         4.3700    1.8720    2.3470 c         1 MOL      0.511983
    162 O24         4.1350    2.6460    3.2990 o         1 MOL     -0.562753
    163 C55         2.2900    1.4220    1.0550 c3        1 MOL      0.076739
    164 C56         1.4940    1.6130   -0.3240 c3        1 MOL      0.105055
    165 C57         0.1250    0.8200   -0.4810 c         1 MOL      0.392332
    166 O25        -1.0140    1.3830   -0.4810 o         1 MOL     -0.595924
    167 O26         0.1360   -0.3970   -0.7940 o         1 MOL     -0.595924
    168 H71         4.5580    0.7600   -0.3610 hn        1 MOL      0.110087
    169 H72         3.5380    3.2090    1.0550 h1        1 MOL      0.119761
    170 H73         1.6830    1.8260    1.8680 hc        1 MOL     -0.025668
    171 H74         2.5110    0.3800    1.2820 hc        1 MOL     -0.025668
    172 H75         2.1130    1.4260   -1.2020 hc        1 MOL      0.015198
    173 H76         1.2320    2.6690   -0.3750 hc        1 MOL      0.015198
    174 N15         5.2700    0.8570    2.4560 n         1 MOL     -0.031726
    175 C58         6.0930    0.5770    3.5970 c3        1 MOL     -0.381660
    176 H77         5.5280    0.7730    4.5080 h1        1 MOL      0.124504
    177 H78         6.3980   -0.4690    3.5770 h1        1 MOL      0.124504
    178 H79         6.9770    1.2140    3.5730 h1        1 MOL      0.124504
    179 H80         5.5470    0.3630    1.6210 hn        1 MOL     -0.016044
    180 Ca1        -2.7680   -0.3350   -1.3120 Ca        1 MOL      1.773297
    181 O27        -1.4910    0.3970   -3.5990 oh        1 MOL     -0.920887
    182 H81        -1.9440    1.0670   -4.0980 ho        1 MOL      0.435571
    183 H82        -0.5590    0.5910   -3.7170 ho        1 MOL      0.435571
@<TRIPOS>BOND
     1    1    2 1   
     2    1    4 1   
     3    1    5 1   
     4    1    6 1   
     5    2    3 2   
     6    2    7 1   
     7    7    8 1   
     8    7   15 1   
     9    8    9 1   
    10    8   11 1   
    11    8   16 1   
    12    9   10 2   
    13    9   19 1   
    14   11   12 1   
    15   11   17 1   
    16   11   18 1   
    17   12   13 1   
    18   12   14 1   
    19   19   20 1   
    20   19   27 1   
    21   20   21 1   
    22   20   23 1   
    23   20   28 1   
    24   21   22 2   
    25   21   38 1   
    26   23   24 1   
    27   23   25 1   
    28   23   29 1   
    29   24   26 1   
    30   24   30 1   
    31   24   31 1   
    32   25   32 1   
    33   25   33 1   
    34   25   34 1   
    35   26   35 1   
    36   26   36 1   
    37   26   37 1   
    38   38   39 1   
    39   38   46 1   
    40   39   40 1   
    41   39   42 1   
    42   39   47 1   
    43   40   41 2   
    44   40   50 1   
    45   42   43 1   
    46   42   48 1   
    47   42   49 1   
    48   43   44 1   
    49   43   45 1   
    50   50   51 1   
    51   50   54 1   
    52   51   52 1   
    53   51   55 1   
    54   51   56 1   
    55   52   53 2   
    56   52   57 1   
    57   57   58 1   
    58   57   65 1   
    59   58   59 1   
    60   58   61 1   
    61   58   66 1   
    62   59   60 2   
    63   59   69 1   
    64   61   62 1   
    65   61   67 1   
    66   61   68 1   
    67   62   63 1   
    68   62   64 1   
    69   69   70 1   
    70   69   73 1   
    71   70   71 1   
    72   70   74 1   
    73   70   75 1   
    74   71   72 2   
    75   71   76 1   
    76   76   77 1   
    77   76   85 1   
    78   77   78 1   
    79   77   80 1   
    80   77   86 1   
    81   78   79 2   
    82   78   93 1   
    83   80   81 1   
    84   80   87 1   
    85   80   88 1   
    86   81   82 1   
    87   81   89 1   
    88   81   90 1   
    89   82   83 1   
    90   82   84 2   
    91   83   91 1   
    92   83   92 1   
    93   93   94 1   
    94   93  100 1   
    95   94   95 1   
    96   94   97 1   
    97   94  101 1   
    98   95   96 2   
    99   95  109 1   
   100   97   98 1   
   101   97   99 1   
   102   97  102 1   
   103   98  103 1   
   104   98  104 1   
   105   98  105 1   
   106   99  106 1   
   107   99  107 1   
   108   99  108 1   
   109  109  110 1   
   110  109  117 1   
   111  110  111 1   
   112  110  113 1   
   113  110  118 1   
   114  111  112 2   
   115  111  123 1   
   116  113  114 1   
   117  113  119 1   
   118  113  120 1   
   119  114  115 1   
   120  114  116 2   
   121  115  121 1   
   122  115  122 1   
   123  123  124 1   
   124  123  135 1   
   125  124  125 1   
   126  124  127 1   
   127  124  136 1   
   128  125  126 2   
   129  125  144 1   
   130  127  128 1   
   131  127  137 1   
   132  127  138 1   
   133  128  129 ar  
   134  128  130 ar  
   135  129  131 ar  
   136  129  139 1   
   137  130  132 ar  
   138  130  140 1   
   139  131  133 ar  
   140  131  141 1   
   141  132  133 ar  
   142  132  142 1   
   143  133  134 1   
   144  134  143 1   
   145  144  145 1   
   146  144  153 1   
   147  145  146 1   
   148  145  148 1   
   149  145  154 1   
   150  146  147 2   
   151  146  159 1   
   152  148  149 1   
   153  148  155 1   
   154  148  156 1   
   155  149  150 1   
   156  149  157 1   
   157  149  158 1   
   158  150  151 1   
   159  150  152 1   
   160  159  160 1   
   161  159  168 1   
   162  160  161 1   
   163  160  163 1   
   164  160  169 1   
   165  161  162 2   
   166  161  174 1   
   167  163  164 1   
   168  163  170 1   
   169  163  171 1   
   170  164  165 1   
   171  164  172 1   
   172  164  173 1   
   173  165  166 1   
   174  165  167 1   
   175  174  175 1   
   176  174  179 1   
   177  175  176 1   
   178  175  177 1   
   179  175  178 1   
   180  181  182 1   
   181  181  183 1   
@<TRIPOS>SUBSTRUCTURE
     1 MOL         1 TEMP              0 ****  ****    0 ROOT
