@<TRIPOS>MOLECULE
MOL
  179   176     1     0     0
SMALL
resp


@<TRIPOS>ATOM
      1 C1         -2.4730    3.6150   -3.7790 c3        1 MOL     -0.300618
      2 C2         -1.4940    3.3750   -2.6490 c         1 MOL      0.602032
      3 O1         -1.9610    3.5250   -1.5140 o         1 MOL     -0.533470
      4 H1         -2.7160    4.6760   -3.8300 hc        1 MOL      0.074992
      5 H2         -2.0250    3.2990   -4.7220 hc        1 MOL      0.074992
      6 H3         -3.3830    3.0430   -3.5990 hc        1 MOL      0.074992
      7 N1         -0.2730    2.9400   -2.9370 n         1 MOL     -0.568820
      8 C3          0.8020    2.7470   -1.9990 c3        1 MOL      0.199996
      9 C4          1.3710    4.0580   -1.4530 c         1 MOL      0.488782
     10 O2          2.5580    4.3360   -1.5950 o         1 MOL     -0.470876
     11 C5          1.8880    1.7900   -2.6220 c3        1 MOL     -0.287087
     12 C6          2.8590    1.2270   -1.5700 c         1 MOL      0.745574
     13 O3          4.0310    1.0440   -1.9030 o         1 MOL     -0.680725
     14 O4          2.4690    1.0860   -0.4020 o         1 MOL     -0.680725
     15 H4         -0.0610    2.7070   -3.8970 hn        1 MOL      0.323062
     16 H5          0.3630    2.2210   -1.1520 h1        1 MOL      0.048714
     17 H6          2.4720    2.3340   -3.3610 hc        1 MOL      0.061507
     18 H7          1.2930    0.9520   -2.9950 hc        1 MOL      0.061507
     19 N2          0.5070    4.8420   -0.8160 n         1 MOL     -0.445482
     20 C7          0.9140    6.2510   -0.4420 c3        1 MOL     -0.087076
     21 C8          1.9950    6.2270    0.6480 c         1 MOL      0.391255
     22 O5          2.7980    7.1930    0.7900 o         1 MOL     -0.541813
     23 C9         -0.3460    6.9980    0.0920 c3        1 MOL     -0.179069
     24 C10        -1.3290    7.2650   -1.0800 c3        1 MOL     -0.050140
     25 C11        -2.5790    8.0790   -0.6510 c3        1 MOL      0.071258
     26 C12        -3.7270    8.0460   -1.6510 c3        1 MOL     -0.124647
     27 N3         -3.3730    8.7800   -2.8500 n4        1 MOL     -0.382718
     28 H8         -0.4450    4.5400   -0.6570 hn        1 MOL      0.339868
     29 H9          1.2440    6.7840   -1.3350 h1        1 MOL      0.144314
     30 H10        -0.0290    7.9970    0.4080 hc        1 MOL      0.107614
     31 H11        -0.8740    6.5460    0.9240 hc        1 MOL      0.107614
     32 H12        -1.7830    6.3040   -1.3290 hc        1 MOL      0.027784
     33 H13        -0.7880    7.6390   -1.9480 hc        1 MOL      0.027784
     34 H14        -2.2490    9.0830   -0.3920 hc        1 MOL      0.020016
     35 H15        -2.9930    7.7430    0.2980 hc        1 MOL      0.020016
     36 H16        -4.5630    8.5570   -1.1640 hx        1 MOL      0.146422
     37 H17        -3.9870    7.0070   -1.8050 hx        1 MOL      0.146422
     38 H18        -2.7240    8.2300   -3.3970 hn        1 MOL      0.336017
     39 H19        -4.1870    9.0100   -3.3950 hn        1 MOL      0.336017
     40 H20        -3.0090    9.6860   -2.6170 hn        1 MOL      0.336017
     41 N4          2.2070    5.0970    1.3590 n         1 MOL     -0.190641
     42 C13         3.3050    4.9190    2.2990 c3        1 MOL      0.020337
     43 C14         4.5490    4.3170    1.6820 c         1 MOL      0.397702
     44 O6          5.6360    4.4170    2.3310 o         1 MOL     -0.533130
     45 C15         2.8070    4.0870    3.5270 c3        1 MOL     -0.281971
     46 C16         2.3350    2.7820    2.9950 c         1 MOL      0.732215
     47 O7          1.3380    2.6760    2.2650 o         1 MOL     -0.729825
     48 O8          3.0540    1.8120    3.2130 o         1 MOL     -0.729825
     49 H21         1.6990    4.2560    1.1270 hn        1 MOL      0.183230
     50 H22         3.6480    5.8850    2.6490 h1        1 MOL      0.111824
     51 H23         1.9580    4.6100    3.9830 hc        1 MOL      0.077465
     52 H24         3.6210    3.8710    4.2180 hc        1 MOL      0.077465
     53 N5          4.4900    3.9500    0.3780 n         1 MOL     -0.089757
     54 C17         5.5900    3.4600   -0.4330 c3        1 MOL     -0.024452
     55 C18         6.2910    2.1680    0.0670 c         1 MOL      0.505815
     56 O9          7.5100    2.2320   -0.1620 o         1 MOL     -0.559705
     57 H25         3.6040    4.0010   -0.0900 hn        1 MOL      0.128717
     58 H26         6.2880    4.2940   -0.4590 h1        1 MOL      0.057240
     59 H27         5.3190    3.2640   -1.4700 h1        1 MOL      0.057240
     60 N6          5.7320    1.2160    0.8470 n         1 MOL     -0.202759
     61 C19         6.4490   -0.0520    1.2260 c3        1 MOL     -0.112197
     62 C20         6.6940   -1.1680    0.1370 c         1 MOL      0.321247
     63 O10         7.4840   -2.0870    0.2760 o         1 MOL     -0.482747
     64 C21         5.9060   -0.5870    2.4900 c3        1 MOL     -0.169132
     65 C22         4.6430   -1.3440    2.2750 c         1 MOL      0.451071
     66 N7          4.6630   -2.6500    2.3740 n         1 MOL     -0.684257
     67 O11         3.6190   -0.7880    1.8340 o         1 MOL     -0.482129
     68 H28         4.7220    1.2100    0.8650 hn        1 MOL      0.118710
     69 H29         7.4970    0.2170    1.3620 h1        1 MOL      0.146585
     70 H30         5.8900    0.1740    3.2680 hc        1 MOL      0.107741
     71 H31         6.5950   -1.3380    2.8950 hc        1 MOL      0.107741
     72 H32         5.4800   -3.1280    2.7060 hn        1 MOL      0.359605
     73 H33         3.7620   -3.1040    2.3750 hn        1 MOL      0.359605
     74 N8          5.9990   -1.0990   -1.0160 n         1 MOL     -0.003659
     75 C23         6.0570   -2.1190   -2.1350 c3        1 MOL     -0.524942
     76 C24         4.8430   -3.0110   -2.2280 c         1 MOL      0.733455
     77 O12         4.8180   -3.9230   -3.0360 o         1 MOL     -0.553152
     78 H34         5.4170   -0.2920   -1.2030 hn        1 MOL      0.206525
     79 H35         6.7990   -2.8970   -1.9440 h1        1 MOL      0.199911
     80 H36         6.2040   -1.5610   -3.0550 h1        1 MOL      0.199911
     81 N9          3.8280   -2.7350   -1.3860 n         1 MOL     -0.544014
     82 C25         2.6300   -3.5650   -1.1810 c3        1 MOL      0.037686
     83 C26         1.3930   -2.6950   -0.7990 c         1 MOL      0.703424
     84 O13         1.4800   -1.6500   -0.0980 o         1 MOL     -0.663130
     85 C27         2.8520   -4.5670   -0.1290 c3        1 MOL      0.172594
     86 C28         4.0510   -5.4840   -0.4220 ca        1 MOL      0.056683
     87 C29         5.2920   -5.1490    0.0730 ca        1 MOL     -0.273048
     88 C30         3.9010   -6.6960   -1.1150 ca        1 MOL     -0.273048
     89 C31         6.4290   -5.9570   -0.2380 ca        1 MOL     -0.123181
     90 C32         4.9820   -7.5380   -1.3340 ca        1 MOL     -0.123181
     91 C33         6.2640   -7.1530   -0.8870 ca        1 MOL      0.235152
     92 O14         7.3130   -7.8960   -1.2420 oh        1 MOL     -0.446066
     93 H37         4.0090   -2.0730   -0.6470 hn        1 MOL      0.303856
     94 H38         2.3880   -4.1160   -2.0850 h1        1 MOL      0.072313
     95 H39         1.9930   -5.2290   -0.0500 hc        1 MOL     -0.055975
     96 H40         2.8860   -4.0310    0.8210 hc        1 MOL     -0.055975
     97 H41         5.4390   -4.1430    0.4230 ha        1 MOL      0.151546
     98 H42         2.9600   -6.9930   -1.5510 ha        1 MOL      0.151546
     99 H43         7.4180   -5.6220    0.0280 ha        1 MOL      0.115266
    100 H44         4.8650   -8.5240   -1.7620 ha        1 MOL      0.115266
    101 H45         6.9600   -8.7200   -1.5810 ho        1 MOL      0.342871
    102 N10         0.2020   -3.1730   -1.3640 n         1 MOL     -0.656884
    103 C34        -1.1330   -2.7260   -0.9700 c3        1 MOL      0.044456
    104 C35        -2.0450   -3.9150   -0.5540 c         1 MOL      0.507447
    105 O15        -1.8980   -5.0900   -0.8790 o         1 MOL     -0.536670
    106 C36        -1.7250   -1.9740   -2.1780 c3        1 MOL     -0.033558
    107 C37        -1.7640   -2.7970   -3.5630 c3        1 MOL      0.036849
    108 C38        -0.8190   -0.7790   -2.4430 c3        1 MOL     -0.517387
    109 C39        -2.2650   -2.0430   -4.8220 c3        1 MOL     -0.230047
    110 H46         0.2310   -4.0080   -1.9150 hn        1 MOL      0.317182
    111 H47        -1.1040   -2.0930   -0.0820 h1        1 MOL      0.209644
    112 H48        -2.7690   -1.7320   -1.9570 hc        1 MOL      0.032178
    113 H49        -2.5640   -3.5240   -3.4090 hc        1 MOL      0.044663
    114 H50        -0.9140   -3.4320   -3.8330 hc        1 MOL      0.044663
    115 H51         0.0660   -0.9240   -3.0570 hc        1 MOL      0.173736
    116 H52        -1.4250    0.0180   -2.8660 hc        1 MOL      0.173736
    117 H53        -0.5360   -0.4630   -1.4440 hc        1 MOL      0.173736
    118 H54        -2.5850   -2.7960   -5.5370 hc        1 MOL      0.054104
    119 H55        -3.1560   -1.4470   -4.6200 hc        1 MOL      0.054104
    120 H56        -1.4940   -1.3610   -5.1880 hc        1 MOL      0.054104
    121 N11        -3.0380   -3.4840    0.2510 n         1 MOL     -0.265193
    122 C40        -4.2360   -4.2770    0.6710 c3        1 MOL      0.013233
    123 C41        -5.5610   -3.7830    0.1010 c         1 MOL      0.558333
    124 O16        -5.5950   -2.7650   -0.6260 o         1 MOL     -0.472098
    125 C42        -4.1920   -4.2190    2.2220 c3        1 MOL     -0.148295
    126 O17        -4.5350   -2.8990    2.6830 oh        1 MOL     -0.562881
    127 H57        -3.0450   -2.4870    0.3860 hn        1 MOL      0.062975
    128 H58        -4.0850   -5.3220    0.3890 h1        1 MOL      0.073196
    129 H59        -3.2610   -4.5810    2.6710 h1        1 MOL      0.129428
    130 H60        -4.9070   -4.9560    2.5630 h1        1 MOL      0.129428
    131 H61        -3.7050   -2.4540    2.8870 ho        1 MOL      0.434577
    132 N12        -6.6590   -4.3750    0.4410 n         1 MOL     -0.498241
    133 C43        -7.9750   -3.9680   -0.0140 c3        1 MOL      0.131694
    134 C44        -8.4140   -2.5830    0.6010 c         1 MOL      0.379093
    135 O18        -9.0060   -1.7410   -0.1200 o         1 MOL     -0.503122
    136 C45        -8.8870   -5.1430    0.2560 c3        1 MOL     -0.347293
    137 H62        -6.5870   -5.0640    1.1860 hn        1 MOL      0.283807
    138 H63        -7.8240   -3.8060   -1.0770 h1        1 MOL      0.114935
    139 H64        -9.6770   -5.1190   -0.5010 hc        1 MOL      0.111237
    140 H65        -8.4830   -6.1110   -0.0100 hc        1 MOL      0.111237
    141 H66        -9.2090   -5.1450    1.2950 hc        1 MOL      0.111237
    142 N13        -7.9760   -2.1950    1.8070 n         1 MOL     -0.265258
    143 C46        -8.2060   -0.9140    2.3840 c3        1 MOL      0.015214
    144 C47        -7.4700    0.1890    1.6370 c         1 MOL      0.487592
    145 O19        -8.0480    1.2160    1.4260 o         1 MOL     -0.525390
    146 C48        -7.7380   -0.8700    3.8100 c3        1 MOL     -0.246757
    147 H67        -7.4180   -2.8330    2.3400 hn        1 MOL      0.276451
    148 H68        -9.2550   -0.6660    2.2600 h1        1 MOL      0.101390
    149 H69        -7.8640    0.0610    4.3680 hc        1 MOL      0.067329
    150 H70        -8.2570   -1.6970    4.2880 hc        1 MOL      0.067329
    151 H71        -6.6700   -1.1150    3.8270 hc        1 MOL      0.067329
    152 N14        -6.2220   -0.0930    1.2190 n         1 MOL     -0.200916
    153 C49        -5.3990    0.8780    0.4070 c3        1 MOL     -0.253622
    154 C50        -5.9560    1.1200   -0.9950 c         1 MOL      0.487952
    155 O20        -5.7300    2.1780   -1.5630 o         1 MOL     -0.551329
    156 C51        -3.9170    0.3580    0.3170 c3        1 MOL      0.394109
    157 C52        -3.3360    0.4770    1.6750 c3        1 MOL     -0.222155
    158 C53        -1.7160    0.2260    1.5910 c         1 MOL      0.765661
    159 O21        -1.0050    1.1950    1.2170 o         1 MOL     -0.751471
    160 O22        -1.2190   -0.8720    1.8800 o         1 MOL     -0.751471
    161 H72        -6.0690   -1.1000    1.1930 hn        1 MOL      0.164604
    162 H73        -5.4360    1.8330    0.9420 h1        1 MOL      0.171431
    163 H74        -3.3960    0.9630   -0.4330 hc        1 MOL     -0.054236
    164 H75        -3.9720   -0.7030    0.0640 hc        1 MOL     -0.054236
    165 H76        -3.7820   -0.3070    2.2910 hc        1 MOL      0.005228
    166 H77        -3.5770    1.4780    2.0270 hc        1 MOL      0.005228
    167 N15        -6.6910    0.1330   -1.5700 n         1 MOL     -0.127584
    168 C54        -7.4660    0.3570   -2.8270 c3        1 MOL     -0.327902
    169 H78        -7.1610   -0.3750   -3.5760 h1        1 MOL      0.124113
    170 H79        -8.5310    0.2450   -2.6240 h1        1 MOL      0.124113
    171 H80        -7.2710    1.3620   -3.2010 h1        1 MOL      0.124113
    172 H81        -6.7450   -0.8110   -1.2080 hn        1 MOL      0.178125
    173 Ca1         1.2890    0.1270    1.8070 Ca        1 MOL      1.740534
    174 O23         0.9650   -2.5830    2.6440 oh        1 MOL     -0.809216
    175 H82         0.4030   -3.3090    2.3710 ho        1 MOL      0.400152
    176 H83         1.5240   -2.9540    3.3270 ho        1 MOL      0.400152
    177 O24         0.6010    0.2800    4.5160 oh        1 MOL     -0.809216
    178 H84        -0.2400    0.4280    4.9670 ho        1 MOL      0.400152
    179 H85         1.2570    0.4660    5.1760 ho        1 MOL      0.400152
@<TRIPOS>BOND
     1    1    2 1   
     2    1    4 1   
     3    1    5 1   
     4    1    6 1   
     5    2    3 2   
     6    2    7 1   
     7    7    8 1   
     8    7   15 1   
     9    8    9 1   
    10    8   11 1   
    11    8   16 1   
    12    9   10 2   
    13    9   19 1   
    14   11   12 1   
    15   11   17 1   
    16   11   18 1   
    17   12   13 1   
    18   12   14 1   
    19   19   20 1   
    20   19   28 1   
    21   20   21 1   
    22   20   23 1   
    23   20   29 1   
    24   21   22 2   
    25   21   41 1   
    26   23   24 1   
    27   23   30 1   
    28   23   31 1   
    29   24   25 1   
    30   24   32 1   
    31   24   33 1   
    32   25   26 1   
    33   25   34 1   
    34   25   35 1   
    35   26   27 1   
    36   26   36 1   
    37   26   37 1   
    38   27   38 1   
    39   27   39 1   
    40   27   40 1   
    41   41   42 1   
    42   41   49 1   
    43   42   43 1   
    44   42   45 1   
    45   42   50 1   
    46   43   44 2   
    47   43   53 1   
    48   45   46 1   
    49   45   51 1   
    50   45   52 1   
    51   46   47 1   
    52   46   48 1   
    53   53   54 1   
    54   53   57 1   
    55   54   55 1   
    56   54   58 1   
    57   54   59 1   
    58   55   56 2   
    59   55   60 1   
    60   60   61 1   
    61   60   68 1   
    62   61   62 1   
    63   61   64 1   
    64   61   69 1   
    65   62   63 2   
    66   62   74 1   
    67   64   65 1   
    68   64   70 1   
    69   64   71 1   
    70   65   66 1   
    71   65   67 2   
    72   66   72 1   
    73   66   73 1   
    74   74   75 1   
    75   74   78 1   
    76   75   76 1   
    77   75   79 1   
    78   75   80 1   
    79   76   77 2   
    80   76   81 1   
    81   81   82 1   
    82   81   93 1   
    83   82   83 1   
    84   82   85 1   
    85   82   94 1   
    86   83   84 2   
    87   83  102 1   
    88   85   86 1   
    89   85   95 1   
    90   85   96 1   
    91   86   87 ar  
    92   86   88 ar  
    93   87   89 ar  
    94   87   97 1   
    95   88   90 ar  
    96   88   98 1   
    97   89   91 ar  
    98   89   99 1   
    99   90   91 ar  
   100   90  100 1   
   101   91   92 1   
   102   92  101 1   
   103  102  103 1   
   104  102  110 1   
   105  103  104 1   
   106  103  106 1   
   107  103  111 1   
   108  104  105 2   
   109  104  121 1   
   110  106  107 1   
   111  106  108 1   
   112  106  112 1   
   113  107  109 1   
   114  107  113 1   
   115  107  114 1   
   116  108  115 1   
   117  108  116 1   
   118  108  117 1   
   119  109  118 1   
   120  109  119 1   
   121  109  120 1   
   122  121  122 1   
   123  121  127 1   
   124  122  123 1   
   125  122  125 1   
   126  122  128 1   
   127  123  124 2   
   128  123  132 1   
   129  125  126 1   
   130  125  129 1   
   131  125  130 1   
   132  126  131 1   
   133  132  133 1   
   134  132  137 1   
   135  133  134 1   
   136  133  136 1   
   137  133  138 1   
   138  134  135 2   
   139  134  142 1   
   140  136  139 1   
   141  136  140 1   
   142  136  141 1   
   143  142  143 1   
   144  142  147 1   
   145  143  144 1   
   146  143  146 1   
   147  143  148 1   
   148  144  145 2   
   149  144  152 1   
   150  146  149 1   
   151  146  150 1   
   152  146  151 1   
   153  152  153 1   
   154  152  161 1   
   155  153  154 1   
   156  153  156 1   
   157  153  162 1   
   158  154  155 2   
   159  154  167 1   
   160  156  157 1   
   161  156  163 1   
   162  156  164 1   
   163  157  158 1   
   164  157  165 1   
   165  157  166 1   
   166  158  159 1   
   167  158  160 1   
   168  167  168 1   
   169  167  172 1   
   170  168  169 1   
   171  168  170 1   
   172  168  171 1   
   173  174  175 1   
   174  174  176 1   
   175  177  178 1   
   176  177  179 1   
@<TRIPOS>SUBSTRUCTURE
     1 MOL         1 TEMP              0 ****  ****    0 ROOT
