@<TRIPOS>MOLECULE
MOL
  189   185     1     0     0
SMALL
resp


@<TRIPOS>ATOM
      1 C1         -0.3470    3.0810    5.9070 c3        1 MOL     -0.360121
      2 C2         -0.6170    2.6930    4.4250 c         1 MOL      0.789693
      3 O1          0.1700    2.9510    3.5880 o         1 MOL     -0.625043
      4 H1          0.2680    3.9810    5.9400 hc        1 MOL      0.083241
      5 H2         -1.2950    3.2710    6.4120 hc        1 MOL      0.083241
      6 H3          0.1750    2.2660    6.4080 hc        1 MOL      0.083241
      7 N1         -1.7010    2.0050    4.1410 n         1 MOL     -0.649195
      8 C3         -2.2760    1.7570    2.8700 c3        1 MOL      0.231361
      9 C4         -2.6760    3.0970    2.2240 c         1 MOL      0.415631
     10 O2         -3.4320    3.8270    2.8830 o         1 MOL     -0.573015
     11 C5         -3.5270    0.9070    2.9210 c3        1 MOL     -0.228543
     12 C6         -4.1560    0.5460    1.5990 c         1 MOL      0.707659
     13 O3         -3.5040    0.7320    0.5030 o         1 MOL     -0.650939
     14 O4         -5.2580   -0.0950    1.6090 o         1 MOL     -0.650939
     15 H4         -2.2970    1.7470    4.9090 hn        1 MOL      0.325600
     16 H5         -1.6030    1.2070    2.2180 h1        1 MOL      0.046288
     17 H6         -4.2630    1.4430    3.5200 hc        1 MOL      0.053003
     18 H7         -3.3060    0.0300    3.5220 hc        1 MOL      0.053003
     19 N2         -2.1900    3.3960    1.0580 n         1 MOL     -0.121852
     20 C7         -2.3810    4.7280    0.4620 c3        1 MOL     -0.096245
     21 C8         -3.1410    4.7830   -0.8640 c         1 MOL      0.663353
     22 O5         -3.3640    5.8650   -1.3850 o         1 MOL     -0.627272
     23 C9         -1.1180    5.6090    0.4990 c3        1 MOL      0.026539
     24 C10        -1.0350    6.3020    1.9130 c3        1 MOL     -0.098030
     25 C11         0.2450    7.1400    2.0430 c3        1 MOL     -0.053074
     26 C12         0.1250    8.4620    1.2600 c3        1 MOL      0.043955
     27 N3          1.4390    9.1580    1.4640 n4        1 MOL     -0.363771
     28 H8         -1.6170    2.6600    0.6670 hn        1 MOL      0.127699
     29 H9         -3.1550    5.1780    1.0700 h1        1 MOL      0.075989
     30 H10        -1.1660    6.3960   -0.2520 hc        1 MOL      0.007754
     31 H11        -0.2190    5.0660    0.2180 hc        1 MOL      0.007754
     32 H12        -0.9340    5.4370    2.5560 hc        1 MOL      0.064246
     33 H13        -1.9280    6.8490    2.2000 hc        1 MOL      0.064246
     34 H14         1.0640    6.4830    1.7510 hc        1 MOL      0.047827
     35 H15         0.3100    7.4060    3.0960 hc        1 MOL      0.047827
     36 H16        -0.7740    9.0260    1.5000 hx        1 MOL      0.089524
     37 H17         0.0780    8.1850    0.2110 hx        1 MOL      0.089524
     38 H18         1.5740    9.4600    2.4210 hn        1 MOL      0.319694
     39 H19         2.2630    8.6190    1.2490 hn        1 MOL      0.319694
     40 H20         1.3960   10.0320    0.9520 hn        1 MOL      0.319694
     41 N4         -3.6780    3.7260   -1.3800 n         1 MOL     -0.477923
     42 C13        -4.5440    3.6670   -2.5650 c3        1 MOL      0.093826
     43 C14        -5.8710    2.9230   -2.3730 c         1 MOL      0.368238
     44 O6         -6.7570    2.9590   -3.1880 o         1 MOL     -0.496590
     45 C15        -3.6910    3.2720   -3.7320 c3        1 MOL     -0.295005
     46 C16        -2.7410    2.0600   -3.5140 c         1 MOL      0.807103
     47 O7         -1.7770    1.8560   -4.3210 o         1 MOL     -0.730057
     48 O8         -2.9300    1.3290   -2.4980 o         1 MOL     -0.730057
     49 H21        -3.4570    2.8700   -0.8910 hn        1 MOL      0.258698
     50 H22        -4.9050    4.6860   -2.7430 h1        1 MOL      0.096720
     51 H23        -3.1220    4.1480   -4.0270 hc        1 MOL      0.080393
     52 H24        -4.2720    2.9800   -4.6010 hc        1 MOL      0.080393
     53 N5         -5.9870    2.2170   -1.2460 n         1 MOL     -0.074489
     54 C17        -7.2530    1.6020   -0.8590 c3        1 MOL     -0.277102
     55 C18        -7.4890    0.2320   -1.5190 c         1 MOL      0.510196
     56 O9         -8.6710   -0.1030   -1.8750 o         1 MOL     -0.568977
     57 H25        -5.3940    2.4160   -0.4540 hn        1 MOL      0.158683
     58 H26        -8.0220    2.2920   -1.1900 h1        1 MOL      0.120260
     59 H27        -7.3690    1.4300    0.2130 h1        1 MOL      0.120260
     60 N6         -6.4570   -0.5170   -1.7930 n         1 MOL     -0.155193
     61 C19        -6.6220   -1.9710   -2.1270 c3        1 MOL     -0.221738
     62 C20        -6.9260   -2.9160   -0.9660 c         1 MOL      0.468771
     63 O10        -7.1610   -4.1590   -1.0750 o         1 MOL     -0.532425
     64 C21        -5.4610   -2.4260   -3.0310 c3        1 MOL     -0.044223
     65 C22        -4.1520   -2.0090   -2.4300 c         1 MOL      0.636468
     66 O11        -3.9670   -2.2460   -1.2450 o         1 MOL     -0.700081
     67 O12        -3.2490   -1.5670   -3.1210 o         1 MOL     -0.700081
     68 H28        -5.4870   -0.2390   -1.6950 hn        1 MOL      0.182100
     69 H29        -7.4180   -2.0330   -2.8690 h1        1 MOL      0.152126
     70 H30        -5.6040   -2.0950   -4.0600 hc        1 MOL      0.049042
     71 H31        -5.4840   -3.5150   -3.1090 hc        1 MOL      0.049042
     72 N7         -6.6040   -2.4820    0.3020 n         1 MOL     -0.246794
     73 C23        -6.6420   -3.3720    1.4860 c3        1 MOL     -0.097166
     74 C24        -5.3870   -4.2000    1.6170 c         1 MOL      0.500787
     75 O13        -5.4050   -5.2540    2.1930 o         1 MOL     -0.553292
     76 H32        -6.0590   -1.6410    0.3500 hn        1 MOL      0.182820
     77 H33        -7.4560   -4.0980    1.4000 h1        1 MOL      0.096518
     78 H34        -6.9020   -2.8780    2.4190 h1        1 MOL      0.096518
     79 N8         -4.2280   -3.7570    1.0570 n         1 MOL     -0.165809
     80 C25        -2.9230   -4.3670    1.2140 c3        1 MOL     -0.146147
     81 C26        -1.7230   -3.4200    1.2580 c         1 MOL      0.631072
     82 O14        -1.8840   -2.2440    1.0490 o         1 MOL     -0.663469
     83 C27        -2.7140   -5.3690    0.0650 c3        1 MOL      0.392867
     84 C28        -3.7290   -6.5180    0.0230 c3        1 MOL     -0.505216
     85 O15        -2.7940   -4.8160   -1.1660 oh        1 MOL     -0.587594
     86 H35        -4.3640   -3.0060    0.3900 hn        1 MOL      0.123955
     87 H36        -3.0500   -4.9610    2.1180 h1        1 MOL      0.076344
     88 H37        -1.7290   -5.8000    0.2390 h1        1 MOL     -0.004022
     89 H38        -3.3480   -4.0480   -0.9950 ho        1 MOL      0.438436
     90 H39        -3.4620   -7.2320   -0.7570 hc        1 MOL      0.128223
     91 H40        -3.7810   -7.1160    0.9330 hc        1 MOL      0.128223
     92 H41        -4.6910   -6.1400   -0.3170 hc        1 MOL      0.128223
     93 N9         -0.5630   -3.9310    1.5050 n         1 MOL     -0.509948
     94 C29         0.6850   -3.1530    1.6110 c3        1 MOL      0.078173
     95 C30         1.7540   -3.6540    0.6240 c         1 MOL      0.506630
     96 O16         2.0690   -4.8540    0.5930 o         1 MOL     -0.540456
     97 C31         1.1750   -3.1240    3.0450 c3        1 MOL      0.009972
     98 C32         0.2770   -2.1870    3.9200 c3        1 MOL      0.075761
     99 C33         2.6430   -2.7490    3.3260 c3        1 MOL     -0.012033
    100 C34         0.7440   -1.9600    5.3860 c3        1 MOL     -0.323432
    101 H42        -0.6070   -4.9350    1.6470 hn        1 MOL      0.267028
    102 H43         0.5050   -2.0770    1.5000 h1        1 MOL      0.087296
    103 H44         1.1030   -4.1360    3.4460 hc        1 MOL      0.023208
    104 H45        -0.7100   -2.6440    4.0040 hc        1 MOL      0.029740
    105 H46         0.1750   -1.1840    3.5070 hc        1 MOL      0.029740
    106 H47         2.8930   -3.1780    4.2960 hc        1 MOL     -0.021747
    107 H48         3.3370   -3.1340    2.5830 hc        1 MOL     -0.021747
    108 H49         2.8150   -1.6750    3.3650 hc        1 MOL     -0.021747
    109 H50         1.3710   -1.0850    5.4720 hc        1 MOL      0.079410
    110 H51        -0.1320   -1.8340    6.0250 hc        1 MOL      0.079410
    111 H52         1.2570   -2.8280    5.8230 hc        1 MOL      0.079410
    112 N10         2.4890   -2.7510   -0.1200 n         1 MOL     -0.130646
    113 C35         3.5910   -3.1120   -1.0230 c3        1 MOL     -0.072374
    114 C36         4.9210   -2.9650   -0.2820 c         1 MOL      0.310275
    115 O17         4.9840   -2.6510    0.9200 o         1 MOL     -0.284423
    116 C37         3.5470   -2.2010   -2.2600 c3        1 MOL      0.199044
    117 C38         2.2590   -2.1190   -2.9870 c3        1 MOL     -0.354886
    118 O18         3.9450   -0.8990   -2.0390 oh        1 MOL     -0.449765
    119 H53         2.3780   -1.7550   -0.0040 hn        1 MOL      0.202529
    120 H54         3.4510   -4.1390   -1.3610 h1        1 MOL      0.100749
    121 H55         4.2920   -2.5370   -2.9740 h1        1 MOL      0.006797
    122 H56         3.5510   -0.4250   -2.7750 ho        1 MOL      0.351317
    123 H57         1.9670   -3.0950   -3.3600 hc        1 MOL      0.099902
    124 H58         1.4870   -1.8180   -2.2740 hc        1 MOL      0.099902
    125 H59         2.3380   -1.4660   -3.8650 hc        1 MOL      0.099902
    126 N11         6.0190   -3.2860   -1.0000 n         1 MOL     -0.141432
    127 C39         7.3570   -2.9060   -0.4910 c3        1 MOL     -0.574856
    128 C40         7.4310   -1.4080   -0.1580 c         1 MOL      0.456854
    129 O19         7.9830   -1.0680    0.8830 o         1 MOL     -0.483732
    130 C41         8.4770   -3.3350   -1.4320 c3        1 MOL      0.608649
    131 C42         8.5120   -4.8180   -1.5810 c3        1 MOL     -0.548229
    132 O20         8.2890   -2.8620   -2.7690 oh        1 MOL     -0.669107
    133 H60         5.8690   -3.4920   -1.9810 hn        1 MOL      0.161533
    134 H61         7.5240   -3.4810    0.4140 h1        1 MOL      0.235903
    135 H62         9.4590   -3.0130   -1.1080 h1        1 MOL      0.052305
    136 H63         7.3890   -3.1050   -3.0200 ho        1 MOL      0.405170
    137 H64         7.7140   -5.2340   -2.1920 hc        1 MOL      0.139796
    138 H65         9.4230   -5.0090   -2.1450 hc        1 MOL      0.139796
    139 H66         8.4870   -5.2680   -0.5850 hc        1 MOL      0.139796
    140 N12         6.7100   -0.5350   -0.8890 n         1 MOL     -0.203650
    141 C43         6.7840    0.9260   -0.7670 c3        1 MOL     -0.123448
    142 C44         5.9140    1.4640    0.3970 c         1 MOL      0.207336
    143 O21         6.4640    2.2850    1.1710 o         1 MOL     -0.478146
    144 C45         6.4910    1.5390   -2.1270 c3        1 MOL     -0.075323
    145 C46         7.0960    2.9530   -2.1500 c3        1 MOL      0.048512
    146 C47         6.8950    3.5530   -3.5280 c3        1 MOL     -0.139701
    147 C48         7.9480    3.0940   -4.5940 c3        1 MOL      0.044818
    148 N13         7.8330    3.8690   -5.8400 n4        1 MOL     -0.425472
    149 H67         6.1990   -0.9470   -1.6560 hn        1 MOL      0.151999
    150 H68         7.8230    1.1220   -0.4990 h1        1 MOL      0.163114
    151 H69         5.4170    1.5870   -2.3210 hc        1 MOL      0.033241
    152 H70         6.9180    1.0080   -2.9740 hc        1 MOL      0.033241
    153 H71         8.1620    2.9150   -1.9110 hc        1 MOL      0.040805
    154 H72         6.6760    3.6080   -1.3760 hc        1 MOL      0.040805
    155 H73         6.9570    4.6280   -3.3490 hc        1 MOL      0.067406
    156 H74         5.8680    3.4080   -3.8780 hc        1 MOL      0.067406
    157 H75         7.7330    2.0580   -4.8750 hx        1 MOL      0.095483
    158 H76         8.9730    3.1840   -4.2440 hx        1 MOL      0.095483
    159 H77         6.9850    3.5940   -6.3070 hn        1 MOL      0.341851
    160 H78         7.8120    4.8560   -5.6260 hn        1 MOL      0.341851
    161 H79         8.6190    3.6510   -6.4510 hn        1 MOL      0.341851
    162 N14         4.7210    0.9480    0.6520 n         1 MOL      0.083898
    163 C49         4.0440    1.2300    1.9240 c3        1 MOL     -0.179293
    164 C50         4.8080    0.6320    3.1030 c         1 MOL      0.443595
    165 O22         4.9000    1.3000    4.1490 o         1 MOL     -0.567646
    166 C51         2.6190    0.6920    1.7920 c3        1 MOL      0.044577
    167 C52         1.8800    1.4940    0.7420 c3        1 MOL     -0.157036
    168 C53         0.6560    0.7950    0.1990 c         1 MOL      0.640382
    169 O23         0.6120   -0.4240    0.0380 o         1 MOL     -0.724777
    170 O24        -0.3920    1.3910   -0.0790 o         1 MOL     -0.724777
    171 H80         4.3110    0.3260   -0.0210 hn        1 MOL      0.055211
    172 H81         4.0020    2.2980    2.0990 h1        1 MOL      0.102018
    173 H82         2.0880    0.7910    2.7440 hc        1 MOL      0.081842
    174 H83         2.6660   -0.3630    1.5040 hc        1 MOL      0.081842
    175 H84         2.5540    1.8690   -0.0280 hc        1 MOL      0.057551
    176 H85         1.5550    2.4310    1.2090 hc        1 MOL      0.057551
    177 N15         5.4030   -0.5310    2.9910 n         1 MOL      0.044127
    178 C54         6.1880   -1.1990    4.0740 c3        1 MOL     -0.278932
    179 H86         6.2480   -0.5370    4.9380 h1        1 MOL      0.108320
    180 H87         5.6940   -2.1270    4.3600 h1        1 MOL      0.108320
    181 H88         7.1930   -1.4160    3.7130 h1        1 MOL      0.108320
    182 H89         5.0410   -1.0680    2.2160 hn        1 MOL      0.042394
    183 Ca1        -1.9030   -0.5680   -1.0630 Ca        1 MOL      1.762897
    184 O25        -0.9110   -2.8140   -1.9310 oh        1 MOL     -0.862611
    185 H90        -1.4570   -3.5560   -2.1600 ho        1 MOL      0.399462
    186 H91        -0.6770   -2.4060   -2.7740 ho        1 MOL      0.399462
    187 O26        -0.3690   -0.1190   -3.2260 oh        1 MOL     -0.862611
    188 H92         0.3810   -0.2150   -3.8130 ho        1 MOL      0.399462
    189 H93        -0.9010    0.5710   -3.6380 ho        1 MOL      0.399462
@<TRIPOS>BOND
     1    1    2 1   
     2    1    4 1   
     3    1    5 1   
     4    1    6 1   
     5    2    3 2   
     6    2    7 1   
     7    7    8 1   
     8    7   15 1   
     9    8    9 1   
    10    8   11 1   
    11    8   16 1   
    12    9   10 2   
    13    9   19 1   
    14   11   12 1   
    15   11   17 1   
    16   11   18 1   
    17   12   13 1   
    18   12   14 1   
    19   19   20 1   
    20   19   28 1   
    21   20   21 1   
    22   20   23 1   
    23   20   29 1   
    24   21   22 2   
    25   21   41 1   
    26   23   24 1   
    27   23   30 1   
    28   23   31 1   
    29   24   25 1   
    30   24   32 1   
    31   24   33 1   
    32   25   26 1   
    33   25   34 1   
    34   25   35 1   
    35   26   27 1   
    36   26   36 1   
    37   26   37 1   
    38   27   38 1   
    39   27   39 1   
    40   27   40 1   
    41   41   42 1   
    42   41   49 1   
    43   42   43 1   
    44   42   45 1   
    45   42   50 1   
    46   43   44 2   
    47   43   53 1   
    48   45   46 1   
    49   45   51 1   
    50   45   52 1   
    51   46   47 1   
    52   46   48 1   
    53   53   54 1   
    54   53   57 1   
    55   54   55 1   
    56   54   58 1   
    57   54   59 1   
    58   55   56 2   
    59   55   60 1   
    60   60   61 1   
    61   60   68 1   
    62   61   62 1   
    63   61   64 1   
    64   61   69 1   
    65   62   63 2   
    66   62   72 1   
    67   64   65 1   
    68   64   70 1   
    69   64   71 1   
    70   65   66 1   
    71   65   67 1   
    72   72   73 1   
    73   72   76 1   
    74   73   74 1   
    75   73   77 1   
    76   73   78 1   
    77   74   75 2   
    78   74   79 1   
    79   79   80 1   
    80   79   86 1   
    81   80   81 1   
    82   80   83 1   
    83   80   87 1   
    84   81   82 2   
    85   81   93 1   
    86   83   84 1   
    87   83   85 1   
    88   83   88 1   
    89   84   90 1   
    90   84   91 1   
    91   84   92 1   
    92   85   89 1   
    93   93   94 1   
    94   93  101 1   
    95   94   95 1   
    96   94   97 1   
    97   94  102 1   
    98   95   96 2   
    99   95  112 1   
   100   97   98 1   
   101   97   99 1   
   102   97  103 1   
   103   98  100 1   
   104   98  104 1   
   105   98  105 1   
   106   99  106 1   
   107   99  107 1   
   108   99  108 1   
   109  100  109 1   
   110  100  110 1   
   111  100  111 1   
   112  112  113 1   
   113  112  119 1   
   114  113  114 1   
   115  113  116 1   
   116  113  120 1   
   117  114  115 2   
   118  114  126 1   
   119  116  117 1   
   120  116  118 1   
   121  116  121 1   
   122  117  123 1   
   123  117  124 1   
   124  117  125 1   
   125  118  122 1   
   126  126  127 1   
   127  126  133 1   
   128  127  128 1   
   129  127  130 1   
   130  127  134 1   
   131  128  129 2   
   132  128  140 1   
   133  130  131 1   
   134  130  132 1   
   135  130  135 1   
   136  131  137 1   
   137  131  138 1   
   138  131  139 1   
   139  132  136 1   
   140  140  141 1   
   141  140  149 1   
   142  141  142 1   
   143  141  144 1   
   144  141  150 1   
   145  142  143 2   
   146  142  162 1   
   147  144  145 1   
   148  144  151 1   
   149  144  152 1   
   150  145  146 1   
   151  145  153 1   
   152  145  154 1   
   153  146  147 1   
   154  146  155 1   
   155  146  156 1   
   156  147  148 1   
   157  147  157 1   
   158  147  158 1   
   159  148  159 1   
   160  148  160 1   
   161  148  161 1   
   162  162  163 1   
   163  162  171 1   
   164  163  164 1   
   165  163  166 1   
   166  163  172 1   
   167  164  165 2   
   168  164  177 1   
   169  166  167 1   
   170  166  173 1   
   171  166  174 1   
   172  167  168 1   
   173  167  175 1   
   174  167  176 1   
   175  168  169 1   
   176  168  170 1   
   177  177  178 1   
   178  177  182 1   
   179  178  179 1   
   180  178  180 1   
   181  178  181 1   
   182  184  185 1   
   183  184  186 1   
   184  187  188 1   
   185  187  189 1   
@<TRIPOS>SUBSTRUCTURE
     1 MOL         1 TEMP              0 ****  ****    0 ROOT
