@<TRIPOS>MOLECULE
MOL
  179   176     1     0     0
SMALL
resp


@<TRIPOS>ATOM
      1 C1          2.1570    3.0840    6.8390 c3        1 MOL     -0.401924
      2 C2          2.1140    2.5230    5.4220 c         1 MOL      0.729406
      3 O1          2.9540    1.7100    4.9710 o         1 MOL     -0.581001
      4 H1          1.1490    3.1080    7.2500 hc        1 MOL      0.102042
      5 H2          2.7890    2.4500    7.4620 hc        1 MOL      0.102042
      6 H3          2.5640    4.0950    6.8180 hc        1 MOL      0.102042
      7 N1          1.1940    3.0610    4.6860 n         1 MOL     -0.570565
      8 C3          0.9230    2.6820    3.2580 c3        1 MOL      0.127327
      9 C4          1.0900    3.8960    2.3280 c         1 MOL      0.543122
     10 O2          0.8620    5.0670    2.6740 o         1 MOL     -0.554676
     11 C5         -0.4570    2.0620    3.0830 c3        1 MOL      0.064138
     12 C6         -0.6670    1.6000    1.6230 c         1 MOL      0.593155
     13 O3         -1.7830    1.8040    1.1180 o         1 MOL     -0.704256
     14 O4          0.2110    1.0570    0.9250 o         1 MOL     -0.704256
     15 H4          0.4940    3.6520    5.1320 hn        1 MOL      0.295277
     16 H5          1.6770    1.9250    3.0190 h1        1 MOL      0.054154
     17 H6         -1.2450    2.7230    3.4500 hc        1 MOL     -0.009899
     18 H7         -0.4790    1.1900    3.7390 hc        1 MOL     -0.009899
     19 N2          1.3550    3.6750    1.0210 n         1 MOL     -0.428599
     20 C7          1.5790    4.7930    0.0650 c3        1 MOL      0.028416
     21 C8          0.3450    5.4840   -0.5360 c         1 MOL      0.562835
     22 O5          0.4410    6.6380   -0.8220 o         1 MOL     -0.604297
     23 C9          2.5250    4.3180   -0.9940 c3        1 MOL     -0.011109
     24 C10         3.0590    5.4500   -1.9410 c3        1 MOL      0.137733
     25 C11         4.3840    5.1080   -2.7240 c3        1 MOL     -0.075433
     26 C12         4.9390    6.3600   -3.5010 c3        1 MOL     -0.014993
     27 N3          3.8490    6.9790   -4.2670 n4        1 MOL     -0.184329
     28 H8          1.5220    2.7230    0.7210 hn        1 MOL      0.273014
     29 H9          2.0850    5.6000    0.5750 h1        1 MOL      0.088482
     30 H10         2.0830    3.5140   -1.5780 hc        1 MOL      0.019196
     31 H11         3.3400    3.9090   -0.4050 hc        1 MOL      0.019196
     32 H12         3.2240    6.3340   -1.3260 hc        1 MOL     -0.033931
     33 H13         2.3150    5.7140   -2.7000 hc        1 MOL     -0.033931
     34 H14         4.0950    4.3570   -3.4540 hc        1 MOL      0.062520
     35 H15         5.1730    4.8330   -2.0300 hc        1 MOL      0.062520
     36 H16         5.7420    6.0920   -4.1880 hx        1 MOL      0.087373
     37 H17         5.2390    7.1700   -2.8320 hx        1 MOL      0.087373
     38 H18         3.2690    7.5080   -3.6340 hn        1 MOL      0.277812
     39 H19         4.2220    7.6620   -4.9200 hn        1 MOL      0.277812
     40 H20         3.2530    6.3320   -4.7630 hn        1 MOL      0.277812
     41 N4         -0.8100    4.8190   -0.5860 n         1 MOL     -0.241170
     42 C13        -2.0560    5.3630   -1.1460 c3        1 MOL     -0.043324
     43 C14        -3.2210    5.1520   -0.1380 c         1 MOL      0.439692
     44 O6         -4.2560    5.7620   -0.2800 o         1 MOL     -0.525613
     45 C15        -2.3570    4.7910   -2.5580 c3        1 MOL     -0.267719
     46 C16        -2.2970    3.2490   -2.7400 c         1 MOL      0.722715
     47 O7         -2.5250    2.4760   -1.7910 o         1 MOL     -0.687582
     48 O8         -2.0140    2.7370   -3.8380 o         1 MOL     -0.687582
     49 H21        -0.8210    3.8960   -0.1600 hn        1 MOL      0.131683
     50 H22        -1.7830    6.4190   -1.1840 h1        1 MOL      0.126315
     51 H23        -1.6820    5.1550   -3.3290 hc        1 MOL      0.085425
     52 H24        -3.3460    5.1650   -2.8390 hc        1 MOL      0.085425
     53 N5         -3.0890    4.2510    0.8510 n         1 MOL     -0.117501
     54 C17        -4.0980    3.9810    1.8690 c3        1 MOL     -0.321742
     55 C18        -5.2660    3.1440    1.3970 c         1 MOL      0.662756
     56 O9         -6.2830    3.0520    2.1200 o         1 MOL     -0.591449
     57 H25        -2.1950    3.7970    0.9570 hn        1 MOL      0.131167
     58 H26        -4.5250    4.9220    2.2110 h1        1 MOL      0.143417
     59 H27        -3.6290    3.4400    2.6970 h1        1 MOL      0.143417
     60 N6         -5.1540    2.5400    0.1830 n         1 MOL     -0.473581
     61 C19        -6.2480    1.7230   -0.4880 c3        1 MOL      0.008555
     62 C20        -6.7840    0.4650    0.1360 c         1 MOL      0.399209
     63 O10        -7.5200   -0.2770   -0.5700 o         1 MOL     -0.502733
     64 C21        -5.6950    1.5320   -1.9390 c3        1 MOL     -0.201396
     65 C22        -4.8210    0.3180   -2.0260 c         1 MOL      0.718591
     66 N7         -4.8030   -0.3700   -3.1150 n         1 MOL     -0.770016
     67 O11        -4.0830   -0.0670   -1.1370 o         1 MOL     -0.767300
     68 H28        -4.2560    2.5820   -0.2780 hn        1 MOL      0.342742
     69 H29        -7.0940    2.4170   -0.4990 h1        1 MOL      0.132957
     70 H30        -5.0860    2.3770   -2.2520 hc        1 MOL      0.089266
     71 H31        -6.5960    1.4730   -2.5430 hc        1 MOL      0.089266
     72 H32        -5.2790   -0.0840   -3.9590 hn        1 MOL      0.369948
     73 H33        -4.2340   -1.2120   -3.0990 hn        1 MOL      0.369948
     74 N8         -6.4700    0.2900    1.4170 n         1 MOL     -0.270565
     75 C23        -6.7310   -0.9250    2.2830 c3        1 MOL     -0.186540
     76 C24        -5.7780   -2.1310    2.1460 c         1 MOL      0.465196
     77 O12        -6.0230   -3.1540    2.8290 o         1 MOL     -0.548600
     78 H34        -5.9090    1.0610    1.7340 hn        1 MOL      0.270914
     79 H35        -7.7680   -1.2250    2.1260 h1        1 MOL      0.138308
     80 H36        -6.6850   -0.5670    3.3140 h1        1 MOL      0.138308
     81 N9         -4.8070   -2.0700    1.2320 n         1 MOL     -0.323414
     82 C25        -3.8230   -3.0800    0.9710 c3        1 MOL      0.694334
     83 C26        -2.4320   -2.4820    1.1410 c         1 MOL      0.038537
     84 O13        -2.2080   -1.2560    0.9440 o         1 MOL     -0.473577
     85 C27        -3.9890   -3.7090   -0.4250 c3        1 MOL      0.037715
     86 C28        -5.3130   -4.4070   -0.7950 ca        1 MOL     -0.171690
     87 C29        -5.4240   -5.8050   -0.5660 ca        1 MOL     -0.057407
     88 C30        -6.4330   -3.7460   -1.3340 ca        1 MOL     -0.057407
     89 C31        -6.6320   -6.4350   -0.9450 ca        1 MOL     -0.308308
     90 C32        -7.6020   -4.3700   -1.7410 ca        1 MOL     -0.308308
     91 C33        -7.6830   -5.7460   -1.5290 ca        1 MOL      0.433647
     92 O14        -8.7950   -6.3900   -1.9750 oh        1 MOL     -0.544822
     93 H37        -4.7400   -1.2760    0.6000 hn        1 MOL      0.170353
     94 H38        -3.9770   -3.8990    1.6800 h1        1 MOL     -0.095471
     95 H39        -3.2730   -4.5250   -0.3520 hc        1 MOL     -0.010115
     96 H40        -3.7190   -2.9350   -1.1410 hc        1 MOL     -0.010115
     97 H41        -4.6210   -6.3780   -0.1280 ha        1 MOL      0.122483
     98 H42        -6.3580   -2.7010   -1.5880 ha        1 MOL      0.122483
     99 H43        -6.6600   -7.5090   -0.7570 ha        1 MOL      0.149227
    100 H44        -8.3930   -3.8620   -2.2850 ha        1 MOL      0.149227
    101 H45        -9.3500   -5.7800   -2.4590 ho        1 MOL      0.385887
    102 N10        -1.4540   -3.3570    1.3930 n         1 MOL     -0.324240
    103 C34        -0.0190   -2.9330    1.3190 c3        1 MOL      0.038116
    104 C35         0.8510   -4.0020    0.7440 c         1 MOL      0.358967
    105 O15         0.5670   -5.1880    1.0410 o         1 MOL     -0.516421
    106 C36         0.3920   -2.2730    2.6900 c3        1 MOL      0.249880
    107 C37         1.8070   -1.7030    2.4850 c3        1 MOL     -0.095244
    108 C38         0.2750   -3.3330    3.7800 c3        1 MOL     -0.508678
    109 C39         2.3050   -0.9020    3.7080 c3        1 MOL     -0.313589
    110 H46        -1.6990   -4.3310    1.4770 hn        1 MOL      0.282064
    111 H47         0.0330   -2.1160    0.5970 h1        1 MOL      0.004792
    112 H48        -0.3900   -1.5550    2.9460 hc        1 MOL      0.110878
    113 H49         1.7680   -1.0400    1.6240 hc        1 MOL      0.053875
    114 H50         2.5290   -2.5160    2.3750 hc        1 MOL      0.053875
    115 H51         0.6570   -4.2500    3.3440 hc        1 MOL      0.117397
    116 H52         0.8790   -3.0850    4.6590 hc        1 MOL      0.117397
    117 H53        -0.7730   -3.3830    4.0770 hc        1 MOL      0.117397
    118 H54         3.1600   -0.3190    3.3630 hc        1 MOL      0.081646
    119 H55         1.5380   -0.2880    4.1730 hc        1 MOL      0.081646
    120 H56         2.6420   -1.5780    4.5030 hc        1 MOL      0.081646
    121 N11         1.8180   -3.5940   -0.1150 n         1 MOL     -0.036553
    122 C40         2.8260   -4.4120   -0.8030 c3        1 MOL     -0.068591
    123 C41         4.2560   -4.1770   -0.2340 c         1 MOL      0.520695
    124 O16         4.4590   -3.2970    0.6370 o         1 MOL     -0.444971
    125 C42         2.8530   -4.2760   -2.3090 c3        1 MOL     -0.066514
    126 O17         2.8910   -2.9430   -2.7570 oh        1 MOL     -0.451875
    127 H57         1.7780   -2.6010   -0.2670 hn        1 MOL      0.072739
    128 H58         2.5520   -5.4270   -0.5320 h1        1 MOL      0.076689
    129 H59         1.9690   -4.6350   -2.8430 h1        1 MOL      0.063242
    130 H60         3.6700   -4.8400   -2.7650 h1        1 MOL      0.063242
    131 H61         2.8600   -3.0440   -3.6990 ho        1 MOL      0.385170
    132 N12         5.2430   -5.0130   -0.5770 n         1 MOL     -0.403277
    133 C43         6.5830   -4.9360   -0.0150 c3        1 MOL      0.079548
    134 C44         7.2780   -3.5720   -0.3660 c         1 MOL      0.517485
    135 O18         7.9120   -2.9380    0.4760 o         1 MOL     -0.534942
    136 C45         7.3880   -6.1350   -0.4170 c3        1 MOL     -0.559969
    137 H62         5.0420   -5.7130   -1.2830 hn        1 MOL      0.281147
    138 H63         6.3820   -4.9500    1.0520 h1        1 MOL      0.118902
    139 H64         7.3280   -6.3550   -1.4770 hc        1 MOL      0.169838
    140 H65         8.4060   -5.8870   -0.1310 hc        1 MOL      0.169838
    141 H66         6.9480   -6.9550    0.1390 hc        1 MOL      0.169838
    142 N13         7.1960   -3.0850   -1.6090 n         1 MOL     -0.378619
    143 C46         7.7890   -1.8340   -2.0080 c3        1 MOL      0.115199
    144 C47         7.0410   -0.6610   -1.4070 c         1 MOL      0.342306
    145 O19         7.5540    0.4210   -1.2180 o         1 MOL     -0.532370
    146 C48         7.8120   -1.8050   -3.5210 c3        1 MOL     -0.180627
    147 H67         6.6050   -3.6110   -2.2340 hn        1 MOL      0.241721
    148 H68         8.8310   -1.8750   -1.6960 h1        1 MOL      0.101219
    149 H69         8.1980   -2.7490   -3.9040 hc        1 MOL      0.049683
    150 H70         6.7770   -1.7460   -3.8610 hc        1 MOL      0.049683
    151 H71         8.3770   -0.9270   -3.8510 hc        1 MOL      0.049683
    152 N14         5.8410   -0.8170   -0.9730 n         1 MOL     -0.019539
    153 C49         5.1370    0.0780   -0.1130 c3        1 MOL     -0.218274
    154 C50         5.5400    0.0010    1.3790 c         1 MOL      0.537193
    155 O20         5.6130    1.0960    1.9580 o         1 MOL     -0.562872
    156 C51         3.6890   -0.1780   -0.2680 c3        1 MOL     -0.015439
    157 C52         3.1670    0.2480   -1.7010 c3        1 MOL      0.106550
    158 C53         1.6220    0.2290   -1.7780 c         1 MOL      0.623213
    159 O21         1.0200   -0.7890   -1.4090 o         1 MOL     -0.713161
    160 O22         0.9290    1.2520   -2.1460 o         1 MOL     -0.713161
    161 H72         5.3390   -1.6680   -1.1610 hn        1 MOL      0.096755
    162 H73         5.3570    1.0690   -0.5080 h1        1 MOL      0.120056
    163 H74         3.1220    0.3910    0.4730 hc        1 MOL      0.046366
    164 H75         3.4960   -1.2350   -0.1030 hc        1 MOL      0.046366
    165 H76         3.5170   -0.3730   -2.5220 hc        1 MOL     -0.067455
    166 H77         3.6230    1.2160   -1.9120 hc        1 MOL     -0.067455
    167 N15         6.0040   -1.0940    1.9000 n         1 MOL     -0.009398
    168 C54         6.6920   -1.1620    3.1380 c3        1 MOL     -0.335884
    169 H78         6.2030   -0.5100    3.8610 h1        1 MOL      0.117208
    170 H79         6.6780   -2.1880    3.5060 h1        1 MOL      0.117208
    171 H80         7.7240   -0.8390    2.9990 h1        1 MOL      0.117208
    172 H81         5.7850   -1.9890    1.4850 hn        1 MOL      0.117844
    173 Ca1        -1.3250    0.3070   -1.0990 Ca        1 MOL      1.783643
    174 O23        -1.5630    0.2020   -3.7160 oh        1 MOL     -0.811409
    175 H82        -1.7980    1.1320   -3.7780 ho        1 MOL      0.387279
    176 H83        -1.8620   -0.1780   -4.5330 ho        1 MOL      0.387279
    177 O24        -1.2040   -2.4510   -2.1870 oh        1 MOL     -0.811409
    178 H84        -0.2840   -2.1810   -2.1420 ho        1 MOL      0.387279
    179 H85        -1.1970   -3.3700   -1.9070 ho        1 MOL      0.387279
@<TRIPOS>BOND
     1    1    2 1   
     2    1    4 1   
     3    1    5 1   
     4    1    6 1   
     5    2    3 2   
     6    2    7 1   
     7    7    8 1   
     8    7   15 1   
     9    8    9 1   
    10    8   11 1   
    11    8   16 1   
    12    9   10 2   
    13    9   19 1   
    14   11   12 1   
    15   11   17 1   
    16   11   18 1   
    17   12   13 1   
    18   12   14 1   
    19   19   20 1   
    20   19   28 1   
    21   20   21 1   
    22   20   23 1   
    23   20   29 1   
    24   21   22 2   
    25   21   41 1   
    26   23   24 1   
    27   23   30 1   
    28   23   31 1   
    29   24   25 1   
    30   24   32 1   
    31   24   33 1   
    32   25   26 1   
    33   25   34 1   
    34   25   35 1   
    35   26   27 1   
    36   26   36 1   
    37   26   37 1   
    38   27   38 1   
    39   27   39 1   
    40   27   40 1   
    41   41   42 1   
    42   41   49 1   
    43   42   43 1   
    44   42   45 1   
    45   42   50 1   
    46   43   44 2   
    47   43   53 1   
    48   45   46 1   
    49   45   51 1   
    50   45   52 1   
    51   46   47 1   
    52   46   48 1   
    53   53   54 1   
    54   53   57 1   
    55   54   55 1   
    56   54   58 1   
    57   54   59 1   
    58   55   56 2   
    59   55   60 1   
    60   60   61 1   
    61   60   68 1   
    62   61   62 1   
    63   61   64 1   
    64   61   69 1   
    65   62   63 2   
    66   62   74 1   
    67   64   65 1   
    68   64   70 1   
    69   64   71 1   
    70   65   66 1   
    71   65   67 2   
    72   66   72 1   
    73   66   73 1   
    74   74   75 1   
    75   74   78 1   
    76   75   76 1   
    77   75   79 1   
    78   75   80 1   
    79   76   77 2   
    80   76   81 1   
    81   81   82 1   
    82   81   93 1   
    83   82   83 1   
    84   82   85 1   
    85   82   94 1   
    86   83   84 2   
    87   83  102 1   
    88   85   86 1   
    89   85   95 1   
    90   85   96 1   
    91   86   87 ar  
    92   86   88 ar  
    93   87   89 ar  
    94   87   97 1   
    95   88   90 ar  
    96   88   98 1   
    97   89   91 ar  
    98   89   99 1   
    99   90   91 ar  
   100   90  100 1   
   101   91   92 1   
   102   92  101 1   
   103  102  103 1   
   104  102  110 1   
   105  103  104 1   
   106  103  106 1   
   107  103  111 1   
   108  104  105 2   
   109  104  121 1   
   110  106  107 1   
   111  106  108 1   
   112  106  112 1   
   113  107  109 1   
   114  107  113 1   
   115  107  114 1   
   116  108  115 1   
   117  108  116 1   
   118  108  117 1   
   119  109  118 1   
   120  109  119 1   
   121  109  120 1   
   122  121  122 1   
   123  121  127 1   
   124  122  123 1   
   125  122  125 1   
   126  122  128 1   
   127  123  124 2   
   128  123  132 1   
   129  125  126 1   
   130  125  129 1   
   131  125  130 1   
   132  126  131 1   
   133  132  133 1   
   134  132  137 1   
   135  133  134 1   
   136  133  136 1   
   137  133  138 1   
   138  134  135 2   
   139  134  142 1   
   140  136  139 1   
   141  136  140 1   
   142  136  141 1   
   143  142  143 1   
   144  142  147 1   
   145  143  144 1   
   146  143  146 1   
   147  143  148 1   
   148  144  145 2   
   149  144  152 1   
   150  146  149 1   
   151  146  150 1   
   152  146  151 1   
   153  152  153 1   
   154  152  161 1   
   155  153  154 1   
   156  153  156 1   
   157  153  162 1   
   158  154  155 2   
   159  154  167 1   
   160  156  157 1   
   161  156  163 1   
   162  156  164 1   
   163  157  158 1   
   164  157  165 1   
   165  157  166 1   
   166  158  159 1   
   167  158  160 1   
   168  167  168 1   
   169  167  172 1   
   170  168  169 1   
   171  168  170 1   
   172  168  171 1   
   173  174  175 1   
   174  174  176 1   
   175  177  178 1   
   176  177  179 1   
@<TRIPOS>SUBSTRUCTURE
     1 MOL         1 TEMP              0 ****  ****    0 ROOT
