@<TRIPOS>MOLECULE
MOL
  186   183     1     0     0
SMALL
resp


@<TRIPOS>ATOM
      1 C1          1.3000   -0.9410    6.2540 c3        1 MOL     -0.389933
      2 C2          1.8590   -0.9650    4.8410 c         1 MOL      0.641312
      3 O1          1.1910   -0.3560    3.9830 o         1 MOL     -0.515640
      4 H1          1.7390   -0.1090    6.8040 hc        1 MOL      0.106437
      5 H2          0.2180   -0.8200    6.2150 hc        1 MOL      0.106437
      6 H3          1.5440   -1.8770    6.7570 hc        1 MOL      0.106437
      7 N1          2.9630   -1.6340    4.4790 n         1 MOL     -0.655595
      8 C3          3.3090   -1.9130    3.0820 c3        1 MOL      0.414524
      9 C4          3.3220   -3.3990    2.7390 c         1 MOL      0.275627
     10 O2          4.1330   -4.1620    3.3080 o         1 MOL     -0.550609
     11 C5          4.6560   -1.2770    2.7860 c3        1 MOL     -0.311133
     12 C6          5.1640   -1.2370    1.3540 c         1 MOL      0.845462
     13 O3          6.4050   -1.2440    1.1990 o         1 MOL     -0.659512
     14 O4          4.3080   -1.2480    0.4360 o         1 MOL     -0.659512
     15 H4          3.5010   -2.0750    5.2110 hn        1 MOL      0.343890
     16 H5          2.5990   -1.4300    2.4000 h1        1 MOL     -0.094245
     17 H6          5.3600   -1.7500    3.4820 hc        1 MOL      0.046402
     18 H7          4.6900   -0.2840    3.2390 hc        1 MOL      0.046402
     19 N2          2.4340   -3.8200    1.8190 n         1 MOL     -0.096930
     20 C7          2.3320   -5.1750    1.2750 c3        1 MOL     -0.025149
     21 C8          2.9850   -5.3360   -0.0760 c         1 MOL      0.460376
     22 O5          3.1630   -6.5170   -0.4110 o         1 MOL     -0.596145
     23 C9          0.8640   -5.7550    1.2550 c3        1 MOL      0.025133
     24 C10        -0.1880   -5.1400    0.3090 c3        1 MOL      0.097721
     25 C11         0.2970   -5.5400    2.7300 c3        1 MOL     -0.216007
     26 C12         0.1120   -5.0630   -1.1500 c3        1 MOL     -0.177776
     27 H8          1.7950   -3.1150    1.4670 hn        1 MOL      0.207487
     28 H9          2.8460   -5.8040    2.0040 h1        1 MOL      0.085288
     29 H10         1.0300   -6.8180    1.0960 hc        1 MOL      0.026952
     30 H11        -0.3610   -4.1370    0.6940 hc        1 MOL     -0.005345
     31 H12        -1.1120   -5.7080    0.3990 hc        1 MOL     -0.005345
     32 H13         0.8310   -6.1740    3.4330 hc        1 MOL      0.038242
     33 H14         0.3080   -4.4690    2.9440 hc        1 MOL      0.038242
     34 H15        -0.7290   -5.8940    2.8600 hc        1 MOL      0.038242
     35 H16         0.8080   -4.2640   -1.3920 hc        1 MOL      0.038126
     36 H17         0.6780   -5.9650   -1.4110 hc        1 MOL      0.038126
     37 H18        -0.8400   -5.0020   -1.6580 hc        1 MOL      0.038126
     38 N3          3.4980   -4.3820   -0.7530 n         1 MOL     -0.260305
     39 C13         4.1970   -4.6310   -2.0190 c3        1 MOL      0.068877
     40 C14         5.5970   -4.0230   -2.1330 c         1 MOL      0.339765
     41 O6          6.3130   -4.2650   -3.1680 o         1 MOL     -0.535688
     42 C15         3.3170   -4.1080   -3.2110 c3        1 MOL     -0.322321
     43 C16         2.7920   -2.6450   -3.0730 c         1 MOL      0.897205
     44 O7          3.0130   -1.9840   -2.0570 o         1 MOL     -0.730096
     45 O8          1.9560   -2.2330   -3.8690 o         1 MOL     -0.730096
     46 H19         3.3610   -3.4120   -0.4820 hn        1 MOL      0.194720
     47 H20         4.3090   -5.7020   -2.1500 h1        1 MOL      0.105341
     48 H21         2.4760   -4.7860   -3.0650 hc        1 MOL      0.075491
     49 H22         3.7100   -4.2130   -4.2260 hc        1 MOL      0.075491
     50 N4          6.0550   -3.2330   -1.1700 n         1 MOL     -0.214669
     51 C17         7.4540   -2.6630   -1.3160 c3        1 MOL     -0.156097
     52 C18         7.6060   -1.3280   -2.0690 c         1 MOL      0.514796
     53 O9          8.5860   -1.0600   -2.7370 o         1 MOL     -0.598477
     54 H23         5.4520   -2.8660   -0.4500 hn        1 MOL      0.151951
     55 H24         8.0940   -3.3980   -1.7940 h1        1 MOL      0.099093
     56 H25         7.8290   -2.5840   -0.2900 h1        1 MOL      0.099093
     57 N5          6.5670   -0.4710   -2.0560 n         1 MOL     -0.064781
     58 C19         6.7120    0.8800   -2.6030 c3        1 MOL     -0.019732
     59 C20         6.7800    1.9640   -1.4640 c         1 MOL      0.255027
     60 O10         7.0650    3.1340   -1.7030 o         1 MOL     -0.534128
     61 C21         5.7090    1.2790   -3.6680 c3        1 MOL      0.036888
     62 C22         4.2970    1.1560   -3.2060 c         1 MOL      0.535577
     63 O11         3.9390    1.2100   -1.9590 o         1 MOL     -0.633600
     64 O12         3.4460    0.9280   -4.1210 o         1 MOL     -0.633600
     65 H26         5.7570   -0.7040   -1.5080 hn        1 MOL      0.077251
     66 H27         7.6530    0.9610   -3.1480 h1        1 MOL      0.088166
     67 H28         5.9060    0.5970   -4.4970 hc        1 MOL      0.001947
     68 H29         5.9620    2.2560   -4.0840 hc        1 MOL      0.001947
     69 N6          6.4480    1.5740   -0.2440 n         1 MOL      0.076568
     70 C23         6.4350    2.4310    0.9370 c3        1 MOL      0.044627
     71 C24         5.4620    3.5770    0.9960 c         1 MOL      0.584084
     72 O13         5.7480    4.5730    1.6230 o         1 MOL     -0.617367
     73 H30         6.2810    0.5840   -0.1140 hn        1 MOL     -0.049747
     74 H31         7.4470    2.8040    1.0550 h1        1 MOL      0.002082
     75 H32         6.1550    1.8010    1.7750 h1        1 MOL      0.002082
     76 N7          4.2890    3.5290    0.3270 n         1 MOL     -0.334052
     77 C25         3.1160    4.4450    0.3150 c3        1 MOL     -0.041045
     78 C26         1.8710    3.5370    0.3250 c         1 MOL      0.689568
     79 O14         1.6860    2.4750   -0.3030 o         1 MOL     -0.686148
     80 C27         3.0420    5.3830   -0.8290 c3        1 MOL     -0.308458
     81 C28         3.9030    6.6150   -0.6270 c3        1 MOL     -0.129437
     82 C29         3.7660    7.6110   -1.7930 c         1 MOL      0.689567
     83 N8          4.8560    8.4030   -1.9030 n         1 MOL     -0.863171
     84 O15         2.8450    7.8040   -2.5500 o         1 MOL     -0.551523
     85 H33         4.0470    2.6100   -0.0420 hn        1 MOL      0.190252
     86 H34         3.0900    5.0380    1.2340 h1        1 MOL      0.059143
     87 H35         2.0420    5.8090   -0.9490 hc        1 MOL      0.140780
     88 H36         3.3180    4.8760   -1.7530 hc        1 MOL      0.140780
     89 H37         4.9490    6.3180   -0.5970 hc        1 MOL      0.084495
     90 H38         3.6790    7.1240    0.3110 hc        1 MOL      0.084495
     91 H39         5.6850    8.4080   -1.3260 hn        1 MOL      0.356544
     92 H40         4.8810    8.9900   -2.7260 hn        1 MOL      0.356544
     93 N9          0.9950    4.0250    1.1800 n         1 MOL     -0.443574
     94 C30        -0.2840    3.3540    1.5610 c3        1 MOL      0.008507
     95 C31        -1.3260    3.7030    0.5730 c         1 MOL      0.526483
     96 O16        -1.6040    4.8960    0.3750 o         1 MOL     -0.592154
     97 C32        -0.7580    3.7300    2.9520 c3        1 MOL      0.102918
     98 C33        -2.1960    3.4150    3.3100 c3        1 MOL     -0.219569
     99 C34         0.2220    3.0760    3.9260 c3        1 MOL     -0.219569
    100 H41         1.1470    4.9420    1.5850 hn        1 MOL      0.285796
    101 H42        -0.2140    2.2660    1.5190 h1        1 MOL      0.158236
    102 H43        -0.6240    4.8030    3.0410 hc        1 MOL      0.007297
    103 H44        -2.3120    2.3410    3.4680 hc        1 MOL      0.048865
    104 H45        -2.3940    3.8950    4.2690 hc        1 MOL      0.048865
    105 H46        -2.9220    3.7740    2.5770 hc        1 MOL      0.048865
    106 H47         1.2110    3.3610    3.5810 hc        1 MOL      0.048865
    107 H48         0.0820    3.4880    4.9270 hc        1 MOL      0.048865
    108 H49         0.2980    1.9840    3.9850 hc        1 MOL      0.048865
    109 N10        -1.9930    2.6620    0.0350 n         1 MOL     -0.243242
    110 C35        -3.2180    2.6590   -0.7750 c3        1 MOL      0.117912
    111 C36        -4.4580    2.2080    0.0250 c         1 MOL      0.378335
    112 O17        -4.3270    1.8810    1.1820 o         1 MOL     -0.434445
    113 C37        -2.8050    1.7940   -2.0090 c3        1 MOL     -0.349343
    114 C38        -3.2950    0.3980   -1.8760 c         1 MOL      0.695458
    115 N11        -2.6080   -0.4480   -1.1190 n         1 MOL     -0.798495
    116 O18        -4.3800    0.0660   -2.2600 o         1 MOL     -0.567493
    117 H50        -1.7290    1.7300    0.3320 hn        1 MOL      0.170371
    118 H51        -3.5490    3.5800   -1.2540 h1        1 MOL      0.057262
    119 H52        -1.7420    1.6710   -2.1970 hc        1 MOL      0.112432
    120 H53        -3.3340    2.0930   -2.9160 hc        1 MOL      0.112432
    121 H54        -1.7480   -0.1310   -0.6900 hn        1 MOL      0.376776
    122 H55        -2.8130   -1.4180   -1.2700 hn        1 MOL      0.376776
    123 N12        -5.6270    2.3310   -0.5420 n         1 MOL     -0.361341
    124 C39        -6.8680    2.1090    0.2480 c3        1 MOL      0.128068
    125 C40        -6.9630    0.6620    0.7380 c         1 MOL      0.249442
    126 O19        -7.5990    0.2740    1.7400 o         1 MOL     -0.550770
    127 C41        -8.1780    2.5850   -0.4180 c3        1 MOL     -0.165473
    128 C42        -8.7150    1.7370   -1.5460 ca        1 MOL      0.226368
    129 C43        -9.6600    0.6570   -1.3560 ca        1 MOL     -0.298166
    130 C44        -8.4270    2.2080   -2.8370 ca        1 MOL     -0.298166
    131 C45       -10.1400   -0.0370   -2.5020 ca        1 MOL     -0.216327
    132 C46        -8.9960    1.5200   -3.9750 ca        1 MOL     -0.216327
    133 C47        -9.8500    0.3330   -3.8130 ca        1 MOL      0.349684
    134 O20       -10.4000   -0.2930   -4.8890 oh        1 MOL     -0.537604
    135 H56        -5.6680    2.6500   -1.4980 hn        1 MOL      0.276468
    136 H57        -6.7540    2.7470    1.1270 h1        1 MOL      0.092617
    137 H58        -8.0000    3.6050   -0.7630 hc        1 MOL      0.041456
    138 H59        -8.9900    2.5530    0.3010 hc        1 MOL      0.041456
    139 H60        -9.8390    0.2800   -0.3650 ha        1 MOL      0.184703
    140 H61        -7.7000    2.9870   -3.0010 ha        1 MOL      0.184703
    141 H62       -10.7230   -0.9410   -2.4210 ha        1 MOL      0.136873
    142 H63        -8.8070    1.9250   -4.9600 ha        1 MOL      0.136873
    143 H64       -10.6390   -1.2080   -4.7040 ho        1 MOL      0.411743
    144 N13        -6.3020   -0.3040    0.1160 n         1 MOL      0.015399
    145 C48        -6.2830   -1.7230    0.5290 c3        1 MOL     -0.013615
    146 C49        -5.1980   -1.9770    1.5880 c         1 MOL      0.265872
    147 O21        -5.2060   -3.1340    2.1490 o         1 MOL     -0.522987
    148 C50        -6.1740   -2.5410   -0.8270 c3        1 MOL     -0.058016
    149 C51        -7.5480   -2.5560   -1.5790 c3        1 MOL     -0.176015
    150 C52        -7.5060   -3.5110   -2.7620 c         1 MOL      0.677702
    151 O22        -8.1350   -4.6100   -2.6660 o         1 MOL     -0.732479
    152 O23        -6.8520   -3.1130   -3.7550 o         1 MOL     -0.732479
    153 H65        -5.7600   -0.0500   -0.6960 hn        1 MOL      0.106844
    154 H66        -7.2530   -2.0400    0.9010 h1        1 MOL      0.118816
    155 H67        -5.9340   -3.5790   -0.5820 hc        1 MOL      0.069637
    156 H68        -5.3880   -2.1190   -1.4420 hc        1 MOL      0.069637
    157 H69        -7.7230   -1.5550   -1.9690 hc        1 MOL      0.019243
    158 H70        -8.3370   -2.7770   -0.8570 hc        1 MOL      0.019243
    159 N14        -4.4220   -0.9260    2.0200 n         1 MOL     -0.093116
    160 C53        -3.4740   -0.8110    3.1520 c3        1 MOL     -0.065194
    161 C54        -3.9560    0.1920    4.1790 c         1 MOL      0.439487
    162 O24        -3.2970    0.5130    5.1720 o         1 MOL     -0.539312
    163 C55        -2.0450   -0.4810    2.5480 c3        1 MOL      0.023530
    164 C56        -1.3100   -1.6110    1.7920 c3        1 MOL     -0.206032
    165 C57        -0.1950   -1.1840    0.8170 c         1 MOL      0.807578
    166 O25         0.8760   -1.7960    0.7250 o         1 MOL     -0.753129
    167 O26        -0.3070   -0.0900    0.2640 o         1 MOL     -0.753129
    168 H71        -4.5480   -0.0920    1.4640 hn        1 MOL      0.057712
    169 H72        -3.4150   -1.7980    3.6170 h1        1 MOL      0.093886
    170 H73        -1.4030   -0.1070    3.3480 hc        1 MOL      0.062079
    171 H74        -2.2250    0.3720    1.9030 hc        1 MOL      0.062079
    172 H75        -2.0080   -2.2370    1.2460 hc        1 MOL      0.059234
    173 H76        -0.8480   -2.3230    2.4760 hc        1 MOL      0.059234
    174 N15        -5.1670    0.7220    4.0550 n         1 MOL     -0.236019
    175 C58        -5.6960    1.7940    5.0040 c3        1 MOL     -0.149245
    176 H77        -4.8740    2.4350    5.3220 h1        1 MOL      0.077910
    177 H78        -6.4470    2.3950    4.4930 h1        1 MOL      0.077910
    178 H79        -6.1430    1.3180    5.8770 h1        1 MOL      0.077910
    179 H80        -5.8550    0.4140    3.3860 hn        1 MOL      0.232732
    180 Ca1         2.1920    0.0110   -0.5260 Ca        1 MOL      1.766226
    181 O27         2.6260    1.0020    1.9960 oh        1 MOL     -0.992335
    182 H81         3.1240    1.4900    2.6510 ho        1 MOL      0.453786
    183 H82         2.0380    0.4430    2.5090 ho        1 MOL      0.453786
    184 O28         0.8010   -0.1690   -2.7610 oh        1 MOL     -0.992335
    185 H83         0.2080    0.0510   -3.4840 ho        1 MOL      0.453786
    186 H84         1.2670   -0.9440   -3.0610 ho        1 MOL      0.453786
@<TRIPOS>BOND
     1    1    2 1   
     2    1    4 1   
     3    1    5 1   
     4    1    6 1   
     5    2    3 2   
     6    2    7 1   
     7    7    8 1   
     8    7   15 1   
     9    8    9 1   
    10    8   11 1   
    11    8   16 1   
    12    9   10 2   
    13    9   19 1   
    14   11   12 1   
    15   11   17 1   
    16   11   18 1   
    17   12   13 1   
    18   12   14 1   
    19   19   20 1   
    20   19   27 1   
    21   20   21 1   
    22   20   23 1   
    23   20   28 1   
    24   21   22 2   
    25   21   38 1   
    26   23   24 1   
    27   23   25 1   
    28   23   29 1   
    29   24   26 1   
    30   24   30 1   
    31   24   31 1   
    32   25   32 1   
    33   25   33 1   
    34   25   34 1   
    35   26   35 1   
    36   26   36 1   
    37   26   37 1   
    38   38   39 1   
    39   38   46 1   
    40   39   40 1   
    41   39   42 1   
    42   39   47 1   
    43   40   41 2   
    44   40   50 1   
    45   42   43 1   
    46   42   48 1   
    47   42   49 1   
    48   43   44 1   
    49   43   45 1   
    50   50   51 1   
    51   50   54 1   
    52   51   52 1   
    53   51   55 1   
    54   51   56 1   
    55   52   53 2   
    56   52   57 1   
    57   57   58 1   
    58   57   65 1   
    59   58   59 1   
    60   58   61 1   
    61   58   66 1   
    62   59   60 2   
    63   59   69 1   
    64   61   62 1   
    65   61   67 1   
    66   61   68 1   
    67   62   63 1   
    68   62   64 1   
    69   69   70 1   
    70   69   73 1   
    71   70   71 1   
    72   70   74 1   
    73   70   75 1   
    74   71   72 2   
    75   71   76 1   
    76   76   77 1   
    77   76   85 1   
    78   77   78 1   
    79   77   80 1   
    80   77   86 1   
    81   78   79 2   
    82   78   93 1   
    83   80   81 1   
    84   80   87 1   
    85   80   88 1   
    86   81   82 1   
    87   81   89 1   
    88   81   90 1   
    89   82   83 1   
    90   82   84 2   
    91   83   91 1   
    92   83   92 1   
    93   93   94 1   
    94   93  100 1   
    95   94   95 1   
    96   94   97 1   
    97   94  101 1   
    98   95   96 2   
    99   95  109 1   
   100   97   98 1   
   101   97   99 1   
   102   97  102 1   
   103   98  103 1   
   104   98  104 1   
   105   98  105 1   
   106   99  106 1   
   107   99  107 1   
   108   99  108 1   
   109  109  110 1   
   110  109  117 1   
   111  110  111 1   
   112  110  113 1   
   113  110  118 1   
   114  111  112 2   
   115  111  123 1   
   116  113  114 1   
   117  113  119 1   
   118  113  120 1   
   119  114  115 1   
   120  114  116 2   
   121  115  121 1   
   122  115  122 1   
   123  123  124 1   
   124  123  135 1   
   125  124  125 1   
   126  124  127 1   
   127  124  136 1   
   128  125  126 2   
   129  125  144 1   
   130  127  128 1   
   131  127  137 1   
   132  127  138 1   
   133  128  129 ar  
   134  128  130 ar  
   135  129  131 ar  
   136  129  139 1   
   137  130  132 ar  
   138  130  140 1   
   139  131  133 ar  
   140  131  141 1   
   141  132  133 ar  
   142  132  142 1   
   143  133  134 1   
   144  134  143 1   
   145  144  145 1   
   146  144  153 1   
   147  145  146 1   
   148  145  148 1   
   149  145  154 1   
   150  146  147 2   
   151  146  159 1   
   152  148  149 1   
   153  148  155 1   
   154  148  156 1   
   155  149  150 1   
   156  149  157 1   
   157  149  158 1   
   158  150  151 1   
   159  150  152 1   
   160  159  160 1   
   161  159  168 1   
   162  160  161 1   
   163  160  163 1   
   164  160  169 1   
   165  161  162 2   
   166  161  174 1   
   167  163  164 1   
   168  163  170 1   
   169  163  171 1   
   170  164  165 1   
   171  164  172 1   
   172  164  173 1   
   173  165  166 1   
   174  165  167 1   
   175  174  175 1   
   176  174  179 1   
   177  175  176 1   
   178  175  177 1   
   179  175  178 1   
   180  181  182 1   
   181  181  183 1   
   182  184  185 1   
   183  184  186 1   
@<TRIPOS>SUBSTRUCTURE
     1 MOL         1 TEMP              0 ****  ****    0 ROOT
