@<TRIPOS>MOLECULE
MOL
  176   174     1     0     0
SMALL
resp


@<TRIPOS>ATOM
      1 C1          1.8640    1.7590    6.3160 c3        1 MOL     -0.256603
      2 C2          1.3980    1.7130    4.8760 c         1 MOL      0.705593
      3 O1          2.2440    1.6980    3.9660 o         1 MOL     -0.584473
      4 H1          2.6150    0.9860    6.4790 hc        1 MOL      0.064770
      5 H2          2.2980    2.7370    6.5270 hc        1 MOL      0.064770
      6 H3          1.0160    1.5860    6.9790 hc        1 MOL      0.064770
      7 N1          0.1290    1.8080    4.5800 n         1 MOL     -0.557853
      8 C3         -0.3280    1.9590    3.2020 c3        1 MOL     -0.000421
      9 C4         -0.0910    3.4620    2.7480 c         1 MOL      0.639915
     10 O2         -0.4400    4.3890    3.5310 o         1 MOL     -0.573029
     11 C5         -1.8110    1.5240    2.9700 c3        1 MOL     -0.139240
     12 C6         -2.3090    1.5140    1.4910 c         1 MOL      0.684216
     13 O3         -3.0100    0.5750    1.0300 o         1 MOL     -0.653464
     14 O4         -1.9330    2.3690    0.6540 o         1 MOL     -0.653464
     15 H4         -0.5280    1.6470    5.3330 hn        1 MOL      0.338192
     16 H5          0.2380    1.3130    2.5330 h1        1 MOL      0.027525
     17 H6         -2.5040    2.0150    3.6550 hc        1 MOL      0.045029
     18 H7         -1.7580    0.4870    3.3110 hc        1 MOL      0.045029
     19 N2          0.4050    3.6850    1.4900 n         1 MOL     -0.381996
     20 C7          0.7310    4.9140    0.8190 c3        1 MOL     -0.109105
     21 C8         -0.2690    5.6360   -0.0870 c         1 MOL      0.562933
     22 O5         -0.0660    6.7780   -0.5190 o         1 MOL     -0.583381
     23 C9          2.0370    4.6550   -0.0300 c3        1 MOL      0.255170
     24 C10         2.8840    5.8210   -0.3510 c3        1 MOL     -0.311049
     25 C11         4.1750    5.4200   -1.0990 c3        1 MOL      0.011305
     26 C12         5.0780    6.6090   -1.6150 c3        1 MOL      0.027931
     27 N3          6.1370    6.2390   -2.5920 n4        1 MOL     -0.404963
     28 H8          0.4930    2.8130    0.9860 hn        1 MOL      0.220172
     29 H9          0.9800    5.6110    1.6230 h1        1 MOL      0.094293
     30 H10         1.6550    4.2220   -0.9610 hc        1 MOL      0.015740
     31 H11         2.6380    3.9530    0.5410 hc        1 MOL      0.015740
     32 H12         3.1700    6.3050    0.5910 hc        1 MOL      0.078016
     33 H13         2.3510    6.6070   -0.8770 hc        1 MOL      0.078016
     34 H14         3.8280    4.8510   -1.9620 hc        1 MOL      0.054030
     35 H15         4.7190    4.8080   -0.3770 hc        1 MOL      0.054030
     36 H16         5.4980    6.9930   -0.6970 hx        1 MOL      0.089278
     37 H17         4.4940    7.4500   -2.0020 hx        1 MOL      0.089278
     38 H18         5.7270    6.2090   -3.5120 hn        1 MOL      0.340187
     39 H19         6.7500    7.0360   -2.6690 hn        1 MOL      0.340187
     40 H20         6.6150    5.3790   -2.3660 hn        1 MOL      0.340187
     41 N4         -1.3630    4.9930   -0.3080 n         1 MOL     -0.421049
     42 C13        -2.4480    5.3550   -1.2460 c3        1 MOL      0.087916
     43 C14        -3.8620    5.0950   -0.7140 c         1 MOL      0.371699
     44 O6         -4.8120    5.6220   -1.2410 o         1 MOL     -0.512774
     45 C15        -2.3860    4.7620   -2.6880 c3        1 MOL     -0.314283
     46 C16        -2.1760    3.2750   -2.5460 c         1 MOL      0.734249
     47 O7         -1.0290    2.7890   -2.6380 o         1 MOL     -0.702692
     48 O8         -3.1480    2.5200   -2.2500 o         1 MOL     -0.702692
     49 H21        -1.3470    4.0560    0.0700 hn        1 MOL      0.275886
     50 H22        -2.3290    6.4110   -1.4920 h1        1 MOL      0.118995
     51 H23        -1.5270    5.2860   -3.0950 hc        1 MOL      0.096475
     52 H24        -3.1520    5.1340   -3.3610 hc        1 MOL      0.096475
     53 N5         -3.9770    4.3200    0.3870 n         1 MOL     -0.220944
     54 C17        -5.2880    4.0160    1.0080 c3        1 MOL     -0.208688
     55 C18        -6.0200    2.8950    0.4010 c         1 MOL      0.486672
     56 O9         -7.0880    2.5270    0.9030 o         1 MOL     -0.569533
     57 H25        -3.2030    3.8940    0.8800 hn        1 MOL      0.179167
     58 H26        -5.8910    4.9240    0.9990 h1        1 MOL      0.130541
     59 H27        -5.1130    3.8060    2.0620 h1        1 MOL      0.130541
     60 N6         -5.5270    2.2180   -0.6690 n         1 MOL     -0.049664
     61 C19        -6.3460    1.2100   -1.2920 c3        1 MOL     -0.301145
     62 C20        -6.7260    0.0210   -0.3540 c         1 MOL      0.575074
     63 O10        -7.7780   -0.5730   -0.4930 o         1 MOL     -0.541892
     64 C21        -5.7780    0.7690   -2.6290 c3        1 MOL      0.086822
     65 C22        -4.7700   -0.3330   -2.4900 c         1 MOL      0.413114
     66 N7         -4.6700   -1.1430   -3.4930 n         1 MOL     -0.618699
     67 O11        -4.0500   -0.5250   -1.4720 o         1 MOL     -0.462849
     68 H28        -4.5980    2.3720   -1.0060 hn        1 MOL      0.131727
     69 H29        -7.2570    1.7000   -1.6570 h1        1 MOL      0.131673
     70 H30        -5.3090    1.6000   -3.1570 hc        1 MOL      0.034161
     71 H31        -6.5660    0.4340   -3.3000 hc        1 MOL      0.034161
     72 H32        -5.2410   -0.9480   -4.3100 hn        1 MOL      0.324024
     73 H33        -4.0900   -1.9670   -3.4390 hn        1 MOL      0.324024
     74 N8         -5.9280   -0.2350    0.7260 n         1 MOL     -0.109625
     75 C23        -6.0980   -1.2910    1.6770 c3        1 MOL     -0.189196
     76 C24        -5.0380   -2.4070    1.6770 c         1 MOL      0.716885
     77 O12        -5.1360   -3.3340    2.4650 o         1 MOL     -0.608981
     78 H34        -5.0290    0.2050    0.8310 hn        1 MOL      0.137638
     79 H35        -7.0970   -1.7110    1.7280 h1        1 MOL      0.082540
     80 H36        -5.9590   -0.8360    2.6620 h1        1 MOL      0.082540
     81 N9         -4.0280   -2.2470    0.8680 n         1 MOL     -0.430464
     82 C25        -3.0720   -3.3520    0.5800 c3        1 MOL      0.096172
     83 C26        -1.6970   -2.7410    0.3440 c         1 MOL      0.371012
     84 O13        -1.5680   -1.7440   -0.3630 o         1 MOL     -0.646526
     85 C27        -3.4860   -4.1500   -0.6740 c3        1 MOL      0.148162
     86 C28        -4.7840   -4.8300   -0.5910 ca        1 MOL     -0.009725
     87 C29        -5.9630   -4.1490   -0.8860 ca        1 MOL     -0.151194
     88 C30        -4.9280   -6.2180   -0.3270 ca        1 MOL     -0.151194
     89 C31        -7.2280   -4.7720   -0.9140 ca        1 MOL     -0.247503
     90 C32        -6.1660   -6.8910   -0.3470 ca        1 MOL     -0.247503
     91 C33        -7.3170   -6.1180   -0.6310 ca        1 MOL      0.341295
     92 O14        -8.5850   -6.7330   -0.7300 oh        1 MOL     -0.501288
     93 H37        -3.8500   -1.4290    0.3000 hn        1 MOL      0.134675
     94 H38        -3.1450   -4.0260    1.4370 h1        1 MOL      0.066520
     95 H39        -2.7590   -4.9140   -0.9660 hc        1 MOL     -0.015010
     96 H40        -3.5310   -3.5600   -1.5830 hc        1 MOL     -0.015010
     97 H41        -5.9630   -3.0730   -1.0150 ha        1 MOL      0.111378
     98 H42        -4.1050   -6.8480   -0.0460 ha        1 MOL      0.111378
     99 H43        -8.0840   -4.2120   -1.2590 ha        1 MOL      0.149791
    100 H44        -6.2050   -7.9660   -0.2930 ha        1 MOL      0.149791
    101 H45        -8.5620   -7.6210   -0.3630 ho        1 MOL      0.350914
    102 N10        -0.5830   -3.3670    0.8170 n         1 MOL     -0.217585
    103 C34         0.7890   -2.8790    0.8120 c3        1 MOL     -0.226454
    104 C35         1.7320   -3.9320    0.3480 c         1 MOL      0.475498
    105 O15         1.6040   -5.1290    0.5340 o         1 MOL     -0.533328
    106 C36         1.0990   -2.4150    2.2350 c3        1 MOL      0.036297
    107 C37         1.2870   -3.5650    3.2460 c3        1 MOL      0.053158
    108 C38        -0.0150   -1.4530    2.7150 c3        1 MOL      0.101013
    109 C39         1.6930   -3.1230    4.6580 c3        1 MOL     -0.162575
    110 H46        -0.7690   -4.2270    1.3250 hn        1 MOL      0.212126
    111 H47         0.8470   -2.0580    0.1000 h1        1 MOL      0.243680
    112 H48         2.0150   -1.8380    2.1330 hc        1 MOL     -0.029374
    113 H49         2.0860   -4.2300    2.9170 hc        1 MOL      0.022226
    114 H50         0.3690   -4.1550    3.3000 hc        1 MOL      0.022226
    115 H51        -0.3650   -0.8620    1.8690 hc        1 MOL     -0.011841
    116 H52        -0.8250   -2.0400    3.1510 hc        1 MOL     -0.011841
    117 H53         0.3150   -0.9690    3.6340 hc        1 MOL     -0.011841
    118 H54         2.7020   -2.7100    4.5620 hc        1 MOL      0.038605
    119 H55         0.9670   -2.4670    5.1480 hc        1 MOL      0.038605
    120 H56         1.6910   -4.0270    5.2600 hc        1 MOL      0.038605
    121 N11         2.6500   -3.4400   -0.4650 n         1 MOL     -0.200102
    122 C40         3.6930   -4.1870   -1.1920 c3        1 MOL      0.061228
    123 C41         5.0510   -4.0540   -0.4210 c         1 MOL      0.521144
    124 O16         5.1440   -3.1940    0.4750 o         1 MOL     -0.479374
    125 C42         3.8490   -3.7480   -2.6050 c3        1 MOL     -0.081821
    126 O17         4.2600   -2.3980   -2.7450 oh        1 MOL     -0.318758
    127 H57         2.5640   -2.4680   -0.7180 hn        1 MOL      0.142514
    128 H58         3.4600   -5.2550   -1.0770 h1        1 MOL      0.070622
    129 H59         2.9330   -3.9780   -3.1530 h1        1 MOL      0.058004
    130 H60         4.6270   -4.3410   -3.0810 h1        1 MOL      0.058004
    131 H61         4.1320   -2.1610   -3.6640 ho        1 MOL      0.346788
    132 N12         6.0930   -4.7760   -0.7810 n         1 MOL     -0.487823
    133 C43         7.4420   -4.3850   -0.3520 c3        1 MOL      0.181196
    134 C44         7.8880   -2.9110   -0.7720 c         1 MOL      0.348516
    135 O18         8.5480   -2.2160   -0.0210 o         1 MOL     -0.490151
    136 C45         8.4280   -5.4450   -0.8630 c3        1 MOL     -0.342396
    137 H62         5.9930   -5.3890   -1.5810 hn        1 MOL      0.288569
    138 H63         7.4780   -4.4180    0.7360 h1        1 MOL      0.099952
    139 H64         8.3920   -5.4540   -1.9520 hc        1 MOL      0.100232
    140 H65         9.4730   -5.2050   -0.6290 hc        1 MOL      0.100232
    141 H66         8.1770   -6.4240   -0.4580 hc        1 MOL      0.100232
    142 N13         7.3280   -2.3310   -1.8280 n         1 MOL     -0.178139
    143 C46         7.5950   -0.9980   -2.3310 c3        1 MOL      0.164251
    144 C47         7.0210    0.0840   -1.3970 c         1 MOL      0.318238
    145 O19         7.7210    1.0520   -1.0460 o         1 MOL     -0.517200
    146 C48         7.0360   -0.8390   -3.7120 c3        1 MOL     -0.451907
    147 H67         6.8440   -2.9090   -2.5000 hn        1 MOL      0.168905
    148 H68         8.6900   -0.9250   -2.3490 h1        1 MOL      0.061008
    149 H69         7.3750   -1.7470   -4.2110 hc        1 MOL      0.119484
    150 H70         5.9650   -0.6360   -3.6470 hc        1 MOL      0.119484
    151 H71         7.5580    0.0190   -4.1380 hc        1 MOL      0.119484
    152 N14         5.7680   -0.1130   -0.9240 n         1 MOL      0.068425
    153 C49         5.0290    0.7580   -0.0030 c3        1 MOL     -0.121878
    154 C50         5.4780    0.5910    1.4910 c         1 MOL      0.536874
    155 O20         5.5470    1.6090    2.1460 o         1 MOL     -0.531227
    156 C51         3.5090    0.5750   -0.0210 c3        1 MOL      0.188990
    157 C52         2.8570    1.0090   -1.3420 c3        1 MOL     -0.016724
    158 C53         1.3800    0.7530   -1.1910 c         1 MOL      0.813793
    159 O21         0.7830    0.0440   -2.0380 o         1 MOL     -0.808619
    160 O22         0.7290    1.1700   -0.2100 o         1 MOL     -0.808619
    161 H72         5.2100   -0.9130   -1.2180 hn        1 MOL     -0.082155
    162 H73         5.1990    1.8190   -0.1720 h1        1 MOL      0.009534
    163 H74         3.2080    1.1540    0.8530 hc        1 MOL     -0.005879
    164 H75         3.3210   -0.4740    0.2230 hc        1 MOL     -0.005879
    165 H76         3.2950    0.3860   -2.1270 hc        1 MOL     -0.064841
    166 H77         2.9830    2.0650   -1.5760 hc        1 MOL     -0.064841
    167 N15         5.8840   -0.6110    1.9250 n         1 MOL     -0.204279
    168 C54         6.5470   -0.8610    3.1800 c3        1 MOL     -0.260642
    169 H78         7.0880   -1.8050    3.1220 h1        1 MOL      0.108282
    170 H79         7.2490   -0.0530    3.3880 h1        1 MOL      0.108282
    171 H80         5.8070   -0.9150    3.9780 h1        1 MOL      0.108282
    172 H81         5.9590   -1.3960    1.2870 hn        1 MOL      0.204169
    173 Ca1        -1.6930    0.6680   -1.2510 Ca        1 MOL      1.745517
    174 O23        -1.7660   -0.3210   -3.8880 oh        1 MOL     -0.793982
    175 H82        -1.8710   -1.2700   -3.7670 ho        1 MOL      0.399289
    176 H83        -1.2940   -0.2370   -4.7140 ho        1 MOL      0.399289
@<TRIPOS>BOND
     1    1    2 1   
     2    1    4 1   
     3    1    5 1   
     4    1    6 1   
     5    2    3 2   
     6    2    7 1   
     7    7    8 1   
     8    7   15 1   
     9    8    9 1   
    10    8   11 1   
    11    8   16 1   
    12    9   10 2   
    13    9   19 1   
    14   11   12 1   
    15   11   17 1   
    16   11   18 1   
    17   12   13 1   
    18   12   14 1   
    19   19   20 1   
    20   19   28 1   
    21   20   21 1   
    22   20   23 1   
    23   20   29 1   
    24   21   22 2   
    25   21   41 1   
    26   23   24 1   
    27   23   30 1   
    28   23   31 1   
    29   24   25 1   
    30   24   32 1   
    31   24   33 1   
    32   25   26 1   
    33   25   34 1   
    34   25   35 1   
    35   26   27 1   
    36   26   36 1   
    37   26   37 1   
    38   27   38 1   
    39   27   39 1   
    40   27   40 1   
    41   41   42 1   
    42   41   49 1   
    43   42   43 1   
    44   42   45 1   
    45   42   50 1   
    46   43   44 2   
    47   43   53 1   
    48   45   46 1   
    49   45   51 1   
    50   45   52 1   
    51   46   47 1   
    52   46   48 1   
    53   53   54 1   
    54   53   57 1   
    55   54   55 1   
    56   54   58 1   
    57   54   59 1   
    58   55   56 2   
    59   55   60 1   
    60   60   61 1   
    61   60   68 1   
    62   61   62 1   
    63   61   64 1   
    64   61   69 1   
    65   62   63 2   
    66   62   74 1   
    67   64   65 1   
    68   64   70 1   
    69   64   71 1   
    70   65   66 1   
    71   65   67 2   
    72   66   72 1   
    73   66   73 1   
    74   74   75 1   
    75   74   78 1   
    76   75   76 1   
    77   75   79 1   
    78   75   80 1   
    79   76   77 2   
    80   76   81 1   
    81   81   82 1   
    82   81   93 1   
    83   82   83 1   
    84   82   85 1   
    85   82   94 1   
    86   83   84 2   
    87   83  102 1   
    88   85   86 1   
    89   85   95 1   
    90   85   96 1   
    91   86   87 ar  
    92   86   88 ar  
    93   87   89 ar  
    94   87   97 1   
    95   88   90 ar  
    96   88   98 1   
    97   89   91 ar  
    98   89   99 1   
    99   90   91 ar  
   100   90  100 1   
   101   91   92 1   
   102   92  101 1   
   103  102  103 1   
   104  102  110 1   
   105  103  104 1   
   106  103  106 1   
   107  103  111 1   
   108  104  105 2   
   109  104  121 1   
   110  106  107 1   
   111  106  108 1   
   112  106  112 1   
   113  107  109 1   
   114  107  113 1   
   115  107  114 1   
   116  108  115 1   
   117  108  116 1   
   118  108  117 1   
   119  109  118 1   
   120  109  119 1   
   121  109  120 1   
   122  121  122 1   
   123  121  127 1   
   124  122  123 1   
   125  122  125 1   
   126  122  128 1   
   127  123  124 2   
   128  123  132 1   
   129  125  126 1   
   130  125  129 1   
   131  125  130 1   
   132  126  131 1   
   133  132  133 1   
   134  132  137 1   
   135  133  134 1   
   136  133  136 1   
   137  133  138 1   
   138  134  135 2   
   139  134  142 1   
   140  136  139 1   
   141  136  140 1   
   142  136  141 1   
   143  142  143 1   
   144  142  147 1   
   145  143  144 1   
   146  143  146 1   
   147  143  148 1   
   148  144  145 2   
   149  144  152 1   
   150  146  149 1   
   151  146  150 1   
   152  146  151 1   
   153  152  153 1   
   154  152  161 1   
   155  153  154 1   
   156  153  156 1   
   157  153  162 1   
   158  154  155 2   
   159  154  167 1   
   160  156  157 1   
   161  156  163 1   
   162  156  164 1   
   163  157  158 1   
   164  157  165 1   
   165  157  166 1   
   166  158  159 1   
   167  158  160 1   
   168  167  168 1   
   169  167  172 1   
   170  168  169 1   
   171  168  170 1   
   172  168  171 1   
   173  174  175 1   
   174  174  176 1   
@<TRIPOS>SUBSTRUCTURE
     1 MOL         1 TEMP              0 ****  ****    0 ROOT
