@<TRIPOS>MOLECULE
MOL
  189   185     1     0     0
SMALL
resp


@<TRIPOS>ATOM
      1 C1         -0.3280    0.9780    6.7320 c3        1 MOL     -0.302720
      2 C2         -0.5740    1.0370    5.1630 c         1 MOL      0.770564
      3 O1          0.1620    1.6900    4.4980 o         1 MOL     -0.611615
      4 H1         -0.0400    1.9660    7.0910 hc        1 MOL      0.078355
      5 H2         -1.2430    0.6620    7.2320 hc        1 MOL      0.078355
      6 H3          0.4690    0.2660    6.9490 hc        1 MOL      0.078355
      7 N1         -1.6350    0.4380    4.5600 n         1 MOL     -0.700905
      8 C3         -2.2660    0.6770    3.3040 c3        1 MOL      0.294568
      9 C4         -2.7230    2.1180    3.2010 c         1 MOL      0.560897
     10 O2         -3.4810    2.5360    4.0610 o         1 MOL     -0.582250
     11 C5         -3.4910   -0.2130    3.1570 c3        1 MOL     -0.318210
     12 C6         -4.2830   -0.3000    1.8920 c         1 MOL      0.842156
     13 O3         -3.6330    0.0730    0.8620 o         1 MOL     -0.672584
     14 O4         -5.4020   -0.8980    1.8380 o         1 MOL     -0.672584
     15 H4         -2.1340   -0.2200    5.1460 hn        1 MOL      0.325814
     16 H5         -1.6480    0.4140    2.4450 h1        1 MOL      0.001929
     17 H6         -4.1960    0.1700    3.8880 hc        1 MOL      0.057019
     18 H7         -3.3870   -1.2100    3.5800 hc        1 MOL      0.057019
     19 N2         -2.3900    2.9050    2.1670 n         1 MOL     -0.104864
     20 C7         -2.6770    4.3270    2.0300 c3        1 MOL     -0.031679
     21 C8         -3.8660    4.6770    1.1830 c         1 MOL      0.517958
     22 O5         -4.4980    5.7370    1.3480 o         1 MOL     -0.559232
     23 C9         -1.3310    5.0170    1.7100 c3        1 MOL     -0.253215
     24 C10        -1.0200    4.8700    0.2120 c3        1 MOL      0.079879
     25 C11         0.3900    5.4620   -0.1070 c3        1 MOL      0.009717
     26 C12         0.6940    5.3940   -1.6360 c3        1 MOL      0.294842
     27 N3          1.6840    6.4320   -1.9950 n4        1 MOL     -0.339626
     28 H8         -1.6600    2.5170    1.5850 hn        1 MOL      0.016911
     29 H9         -2.9510    4.7240    3.0040 h1        1 MOL      0.086572
     30 H10        -0.5290    4.5320    2.2570 hc        1 MOL      0.103592
     31 H11        -1.4410    6.0670    1.9760 hc        1 MOL      0.103592
     32 H12        -1.7840    5.4350   -0.3180 hc        1 MOL      0.032106
     33 H13        -1.1670    3.8230   -0.0420 hc        1 MOL      0.032106
     34 H14         1.1750    4.9270    0.4160 hc        1 MOL     -0.004485
     35 H15         0.4150    6.4810    0.2700 hc        1 MOL     -0.004485
     36 H16        -0.2600    5.6330   -2.1170 hx        1 MOL     -0.037578
     37 H17         1.0440    4.4380   -2.0070 hx        1 MOL     -0.037578
     38 H18         1.6910    6.4250   -3.0050 hn        1 MOL      0.285322
     39 H19         1.4470    7.3570   -1.6320 hn        1 MOL      0.285322
     40 H20         2.6440    6.2000   -1.7810 hn        1 MOL      0.285322
     41 N4         -4.3110    3.8000    0.2660 n         1 MOL     -0.291777
     42 C13        -5.2800    4.0890   -0.8100 c3        1 MOL      0.028882
     43 C14        -6.3240    3.0350   -0.8080 c         1 MOL      0.484933
     44 O6         -7.3880    3.1070   -1.4630 o         1 MOL     -0.530593
     45 C15        -4.5060    4.1610   -2.2070 c3        1 MOL     -0.333251
     46 C16        -3.4580    3.0690   -2.4630 c         1 MOL      0.862310
     47 O7         -3.0310    2.3000   -1.5710 o         1 MOL     -0.737208
     48 O8         -2.9640    3.0100   -3.6450 o         1 MOL     -0.737208
     49 H21        -3.8240    2.9390    0.0980 hn        1 MOL      0.027751
     50 H22        -5.7940    5.0210   -0.5920 h1        1 MOL      0.101658
     51 H23        -4.0840    5.1600   -2.3380 hc        1 MOL      0.103557
     52 H24        -5.1800    3.9420   -3.0340 hc        1 MOL      0.103557
     53 N5         -6.1490    2.0320    0.0820 n         1 MOL     -0.075284
     54 C17        -7.2810    1.2320    0.4550 c3        1 MOL     -0.221483
     55 C18        -7.4820    0.1280   -0.6080 c         1 MOL      0.568871
     56 O9         -8.3940    0.1490   -1.4300 o         1 MOL     -0.543172
     57 H25        -5.2900    1.9940    0.6240 hn        1 MOL      0.123614
     58 H26        -8.0960    1.9530    0.4320 h1        1 MOL      0.095597
     59 H27        -7.2330    0.8270    1.4650 h1        1 MOL      0.095597
     60 N6         -6.5510   -0.8420   -0.6930 n         1 MOL     -0.202674
     61 C19        -6.6710   -2.0240   -1.6580 c3        1 MOL     -0.005425
     62 C20        -6.5010   -3.4570   -0.9480 c         1 MOL      0.495246
     63 O10        -6.5900   -4.4660   -1.5960 o         1 MOL     -0.532043
     64 C21        -5.7960   -1.9280   -2.8580 c3        1 MOL      0.077105
     65 C22        -4.4860   -1.1880   -2.5890 c         1 MOL      0.503010
     66 O11        -4.1460   -0.3750   -3.4320 o         1 MOL     -0.595929
     67 O12        -3.7140   -1.5250   -1.6980 o         1 MOL     -0.595929
     68 H28        -5.8620   -0.8640    0.0520 hn        1 MOL     -0.065643
     69 H29        -7.7070   -2.1050   -1.9620 h1        1 MOL      0.062699
     70 H30        -6.4300   -1.4420   -3.6010 hc        1 MOL      0.000374
     71 H31        -5.6890   -2.9160   -3.3000 hc        1 MOL      0.000374
     72 N7         -6.0930   -3.4770    0.2920 n         1 MOL     -0.422442
     73 C23        -5.5670   -4.6950    0.9970 c3        1 MOL      0.032820
     74 C24        -4.2080   -5.2540    0.7230 c         1 MOL      0.475561
     75 O13        -3.9500   -6.4510    0.8320 o         1 MOL     -0.529964
     76 H32        -5.9660   -2.6300    0.8230 hn        1 MOL      0.340951
     77 H33        -6.2630   -5.5260    0.8560 h1        1 MOL      0.061468
     78 H34        -5.5630   -4.5370    2.0720 h1        1 MOL      0.061468
     79 N8         -3.3700   -4.3920    0.0700 n         1 MOL     -0.289286
     80 C25        -1.9650   -4.6330   -0.2800 c3        1 MOL     -0.199991
     81 C26        -1.0140   -3.5800    0.2290 c         1 MOL      0.838869
     82 O14        -1.2180   -2.3380    0.1330 o         1 MOL     -0.744540
     83 C27        -1.7340   -4.8200   -1.8010 c3        1 MOL      0.267014
     84 C28        -2.6180   -5.9850   -2.2380 c3        1 MOL     -0.510239
     85 O15        -2.0990   -3.6790   -2.4260 oh        1 MOL     -0.485903
     86 H35        -3.6690   -3.4240    0.0520 hn        1 MOL      0.218870
     87 H36        -1.7300   -5.6170    0.1080 h1        1 MOL      0.108901
     88 H37        -0.6610   -4.9380   -1.9630 h1        1 MOL      0.040354
     89 H38        -3.0490   -3.7070   -2.3590 ho        1 MOL      0.380347
     90 H39        -3.6700   -5.8970   -1.9610 hc        1 MOL      0.148146
     91 H40        -2.6900   -5.9950   -3.3330 hc        1 MOL      0.148146
     92 H41        -2.2310   -6.9120   -1.8310 hc        1 MOL      0.148146
     93 N9          0.0940   -4.0870    0.7800 n         1 MOL     -0.679240
     94 C29         1.2610   -3.2220    0.9680 c3        1 MOL      0.147785
     95 C30         2.3120   -3.3350   -0.1650 c         1 MOL      0.480122
     96 O16         2.9060   -4.4300   -0.3360 o         1 MOL     -0.553471
     97 C31         1.9700   -3.6160    2.3440 c3        1 MOL      0.103471
     98 C32         1.0270   -3.2960    3.4820 c3        1 MOL      0.392670
     99 C33         3.4240   -3.1810    2.5960 c3        1 MOL     -0.298695
    100 C34         1.3930   -3.8130    4.8560 c3        1 MOL     -0.352976
    101 H42         0.2500   -5.0870    0.8300 hn        1 MOL      0.335675
    102 H43         0.9150   -2.1880    1.0480 h1        1 MOL      0.073953
    103 H44         1.9750   -4.7060    2.3470 hc        1 MOL     -0.013989
    104 H45         0.0340   -3.6740    3.2630 hc        1 MOL     -0.092470
    105 H46         0.9240   -2.2070    3.5090 hc        1 MOL     -0.092470
    106 H47         3.7350   -3.3440    3.6280 hc        1 MOL      0.058408
    107 H48         4.0890   -3.8560    2.0540 hc        1 MOL      0.058408
    108 H49         3.5250   -2.1570    2.2420 hc        1 MOL      0.058408
    109 H50         1.6430   -4.8690    4.8140 hc        1 MOL      0.074216
    110 H51         2.3230   -3.3360    5.1520 hc        1 MOL      0.074216
    111 H52         0.5210   -3.5530    5.4600 hc        1 MOL      0.074216
    112 N10         2.5690   -2.3050   -0.9700 n         1 MOL     -0.264581
    113 C35         3.7210   -2.1700   -1.9360 c3        1 MOL     -0.101105
    114 C36         4.9980   -1.8510   -1.1500 c         1 MOL      0.480594
    115 O17         4.9740   -1.3060   -0.0340 o         1 MOL     -0.330603
    116 C37         3.4940   -1.0130   -2.8870 c3        1 MOL      0.232748
    117 C38         2.3560   -1.3110   -3.8960 c3        1 MOL     -0.100157
    118 O18         3.1670    0.1990   -2.2020 oh        1 MOL     -0.502103
    119 H53         1.9160   -1.5460   -0.8570 hn        1 MOL      0.143064
    120 H54         3.8790   -3.1020   -2.4850 h1        1 MOL      0.120236
    121 H55         4.4260   -0.7610   -3.3830 h1        1 MOL     -0.007953
    122 H56         2.3550    0.0620   -1.7150 ho        1 MOL      0.317727
    123 H57         2.7710   -2.0280   -4.6140 hc        1 MOL      0.028148
    124 H58         1.5180   -1.6340   -3.2810 hc        1 MOL      0.028148
    125 H59         2.1380   -0.3910   -4.4330 hc        1 MOL      0.028148
    126 N11         6.1010   -1.9870   -1.8880 n         1 MOL     -0.360836
    127 C39         7.4800   -1.7760   -1.3790 c3        1 MOL     -0.029807
    128 C40         7.5360   -0.5080   -0.4500 c         1 MOL      0.226965
    129 O19         8.0680   -0.5480    0.6320 o         1 MOL     -0.412355
    130 C41         8.5790   -1.7730   -2.4090 c3        1 MOL      0.382338
    131 C42        10.0060   -1.6880   -1.8510 c3        1 MOL     -0.543161
    132 O20         8.5120   -2.9740   -3.0700 oh        1 MOL     -0.609702
    133 H60         6.0000   -2.5560   -2.7180 hn        1 MOL      0.250557
    134 H61         7.6910   -2.6320   -0.7390 h1        1 MOL      0.162148
    135 H62         8.3790   -0.9900   -3.1470 h1        1 MOL     -0.034081
    136 H63         9.0610   -2.9090   -3.8490 ho        1 MOL      0.408978
    137 H64        10.6260   -1.4910   -2.7330 hc        1 MOL      0.159572
    138 H65        10.1820   -0.8480   -1.1890 hc        1 MOL      0.159572
    139 H66        10.2550   -2.6110   -1.3410 hc        1 MOL      0.159572
    140 N12         7.0530    0.6830   -0.8950 n         1 MOL     -0.228655
    141 C43         7.0870    1.9070   -0.0980 c3        1 MOL      0.024425
    142 C44         6.2400    1.9900    1.1970 c         1 MOL      0.263203
    143 O21         6.6680    2.5540    2.2360 o         1 MOL     -0.471539
    144 C45         6.7870    3.1400   -0.9980 c3        1 MOL     -0.029042
    145 C46         5.3010    3.1140   -1.4250 c3        1 MOL      0.127242
    146 C47         5.2560    3.7110   -2.8280 c3        1 MOL     -0.074911
    147 C48         3.8410    3.8000   -3.4430 c3        1 MOL      0.002496
    148 N13         3.3480    2.6160   -4.1860 n4        1 MOL     -0.086165
    149 H67         6.6590    0.7620   -1.8220 hn        1 MOL      0.197164
    150 H68         8.1390    2.0790    0.1380 h1        1 MOL      0.111694
    151 H69         7.4120    3.0350   -1.8750 hc        1 MOL      0.023638
    152 H70         7.1280    4.0140   -0.4430 hc        1 MOL      0.023638
    153 H71         4.6780    3.6300   -0.6870 hc        1 MOL     -0.027275
    154 H72         4.8840    2.1050   -1.5080 hc        1 MOL     -0.027275
    155 H73         5.9320    3.1480   -3.4610 hc        1 MOL      0.045114
    156 H74         5.5280    4.7640   -2.8300 hc        1 MOL      0.045114
    157 H75         3.7970    4.6090   -4.1750 hx        1 MOL      0.014852
    158 H76         3.0910    3.9930   -2.6750 hx        1 MOL      0.014852
    159 H77         2.5620    2.8260   -4.7900 hn        1 MOL      0.244103
    160 H78         3.9780    2.1330   -4.8000 hn        1 MOL      0.244103
    161 H79         3.0610    1.8940   -3.5360 hn        1 MOL      0.244103
    162 N14         5.0760    1.4020    1.1330 n         1 MOL      0.065785
    163 C49         4.2100    1.2620    2.2770 c3        1 MOL     -0.199608
    164 C50         4.8460    0.3220    3.3270 c         1 MOL      0.456070
    165 O22         4.7950    0.5100    4.5450 o         1 MOL     -0.547398
    166 C51         2.8360    0.6770    1.8600 c3        1 MOL      0.248789
    167 C52         2.0620    1.5890    0.9080 c3        1 MOL     -0.307517
    168 C53         0.7480    0.9650    0.4070 c         1 MOL      0.664430
    169 O23         0.8210    0.0450   -0.4550 o         1 MOL     -0.590476
    170 O24        -0.3950    1.3850    0.7450 o         1 MOL     -0.590476
    171 H80         4.8720    0.8540    0.3100 hn        1 MOL     -0.095020
    172 H81         4.0030    2.2320    2.7260 h1        1 MOL      0.136175
    173 H82         2.2090    0.4950    2.7330 hc        1 MOL     -0.010046
    174 H83         2.8990   -0.2520    1.3030 hc        1 MOL     -0.010046
    175 H84         2.6770    1.8940    0.0530 hc        1 MOL      0.066163
    176 H85         1.7800    2.4810    1.4660 hc        1 MOL      0.066163
    177 N15         5.6870   -0.5820    2.9360 n         1 MOL     -0.005018
    178 C54         6.4860   -1.3970    3.9030 c3        1 MOL     -0.471875
    179 H86         6.7490   -0.7830    4.7640 h1        1 MOL      0.165765
    180 H87         5.8960   -2.2520    4.2330 h1        1 MOL      0.165765
    181 H88         7.3960   -1.7480    3.4170 h1        1 MOL      0.165765
    182 H89         5.8350   -0.8000    1.9540 hn        1 MOL      0.152074
    183 Ca1        -1.8840    0.0560   -1.0120 Ca        1 MOL      1.724598
    184 O25        -0.4360    2.1530   -2.7040 oh        1 MOL     -0.865989
    185 H90        -1.1970    2.6910   -2.9260 ho        1 MOL      0.389964
    186 H91        -0.1400    1.8010   -3.5460 ho        1 MOL      0.389964
    187 O26        -1.0060   -1.3770   -3.2240 oh        1 MOL     -0.865989
    188 H92        -0.4970   -1.4720   -4.0230 ho        1 MOL      0.389964
    189 H93        -1.5030   -2.1940   -3.1540 ho        1 MOL      0.389964
@<TRIPOS>BOND
     1    1    2 1   
     2    1    4 1   
     3    1    5 1   
     4    1    6 1   
     5    2    3 2   
     6    2    7 1   
     7    7    8 1   
     8    7   15 1   
     9    8    9 1   
    10    8   11 1   
    11    8   16 1   
    12    9   10 2   
    13    9   19 1   
    14   11   12 1   
    15   11   17 1   
    16   11   18 1   
    17   12   13 1   
    18   12   14 1   
    19   19   20 1   
    20   19   28 1   
    21   20   21 1   
    22   20   23 1   
    23   20   29 1   
    24   21   22 2   
    25   21   41 1   
    26   23   24 1   
    27   23   30 1   
    28   23   31 1   
    29   24   25 1   
    30   24   32 1   
    31   24   33 1   
    32   25   26 1   
    33   25   34 1   
    34   25   35 1   
    35   26   27 1   
    36   26   36 1   
    37   26   37 1   
    38   27   38 1   
    39   27   39 1   
    40   27   40 1   
    41   41   42 1   
    42   41   49 1   
    43   42   43 1   
    44   42   45 1   
    45   42   50 1   
    46   43   44 2   
    47   43   53 1   
    48   45   46 1   
    49   45   51 1   
    50   45   52 1   
    51   46   47 1   
    52   46   48 1   
    53   53   54 1   
    54   53   57 1   
    55   54   55 1   
    56   54   58 1   
    57   54   59 1   
    58   55   56 2   
    59   55   60 1   
    60   60   61 1   
    61   60   68 1   
    62   61   62 1   
    63   61   64 1   
    64   61   69 1   
    65   62   63 2   
    66   62   72 1   
    67   64   65 1   
    68   64   70 1   
    69   64   71 1   
    70   65   66 1   
    71   65   67 1   
    72   72   73 1   
    73   72   76 1   
    74   73   74 1   
    75   73   77 1   
    76   73   78 1   
    77   74   75 2   
    78   74   79 1   
    79   79   80 1   
    80   79   86 1   
    81   80   81 1   
    82   80   83 1   
    83   80   87 1   
    84   81   82 2   
    85   81   93 1   
    86   83   84 1   
    87   83   85 1   
    88   83   88 1   
    89   84   90 1   
    90   84   91 1   
    91   84   92 1   
    92   85   89 1   
    93   93   94 1   
    94   93  101 1   
    95   94   95 1   
    96   94   97 1   
    97   94  102 1   
    98   95   96 2   
    99   95  112 1   
   100   97   98 1   
   101   97   99 1   
   102   97  103 1   
   103   98  100 1   
   104   98  104 1   
   105   98  105 1   
   106   99  106 1   
   107   99  107 1   
   108   99  108 1   
   109  100  109 1   
   110  100  110 1   
   111  100  111 1   
   112  112  113 1   
   113  112  119 1   
   114  113  114 1   
   115  113  116 1   
   116  113  120 1   
   117  114  115 2   
   118  114  126 1   
   119  116  117 1   
   120  116  118 1   
   121  116  121 1   
   122  117  123 1   
   123  117  124 1   
   124  117  125 1   
   125  118  122 1   
   126  126  127 1   
   127  126  133 1   
   128  127  128 1   
   129  127  130 1   
   130  127  134 1   
   131  128  129 2   
   132  128  140 1   
   133  130  131 1   
   134  130  132 1   
   135  130  135 1   
   136  131  137 1   
   137  131  138 1   
   138  131  139 1   
   139  132  136 1   
   140  140  141 1   
   141  140  149 1   
   142  141  142 1   
   143  141  144 1   
   144  141  150 1   
   145  142  143 2   
   146  142  162 1   
   147  144  145 1   
   148  144  151 1   
   149  144  152 1   
   150  145  146 1   
   151  145  153 1   
   152  145  154 1   
   153  146  147 1   
   154  146  155 1   
   155  146  156 1   
   156  147  148 1   
   157  147  157 1   
   158  147  158 1   
   159  148  159 1   
   160  148  160 1   
   161  148  161 1   
   162  162  163 1   
   163  162  171 1   
   164  163  164 1   
   165  163  166 1   
   166  163  172 1   
   167  164  165 2   
   168  164  177 1   
   169  166  167 1   
   170  166  173 1   
   171  166  174 1   
   172  167  168 1   
   173  167  175 1   
   174  167  176 1   
   175  168  169 1   
   176  168  170 1   
   177  177  178 1   
   178  177  182 1   
   179  178  179 1   
   180  178  180 1   
   181  178  181 1   
   182  184  185 1   
   183  184  186 1   
   184  187  188 1   
   185  187  189 1   
@<TRIPOS>SUBSTRUCTURE
     1 MOL         1 TEMP              0 ****  ****    0 ROOT
