@<TRIPOS>MOLECULE
MOL
  189   185     1     0     0
SMALL
resp


@<TRIPOS>ATOM
      1 C1         -0.2430    3.1170   -5.0920 c3        1 MOL     -0.365276
      2 C2          0.3530    2.9090   -3.7050 c         1 MOL      0.813641
      3 O1         -0.2220    3.2670   -2.7060 o         1 MOL     -0.681670
      4 H1         -1.3040    3.3510   -5.0000 hc        1 MOL      0.084347
      5 H2          0.2680    3.9410   -5.5880 hc        1 MOL      0.084347
      6 H3         -0.1230    2.2070   -5.6800 hc        1 MOL      0.084347
      7 N1          1.5580    2.4180   -3.6300 n         1 MOL     -0.699677
      8 C3          2.2190    2.1110   -2.3560 c3        1 MOL      0.467906
      9 C4          2.4970    3.4430   -1.7580 c         1 MOL      0.398385
     10 O2          3.0840    4.3160   -2.3520 o         1 MOL     -0.607763
     11 C5          3.4370    1.2860   -2.5990 c3        1 MOL     -0.385822
     12 C6          4.0260    0.6350   -1.4210 c         1 MOL      0.874001
     13 O3          5.1350    0.0810   -1.4890 o         1 MOL     -0.735221
     14 O4          3.4660    0.7080   -0.3200 o         1 MOL     -0.735221
     15 H4          1.9340    2.1090   -4.5080 hn        1 MOL      0.325012
     16 H5          1.5040    1.5660   -1.7440 h1        1 MOL     -0.053099
     17 H6          4.1400    1.9490   -3.1240 hc        1 MOL      0.079690
     18 H7          3.1900    0.4260   -3.2280 hc        1 MOL      0.079690
     19 N2          2.1680    3.6300   -0.5050 n         1 MOL      0.000273
     20 C7          2.4290    4.9460    0.1930 c3        1 MOL     -0.018437
     21 C8          3.2670    4.8020    1.4800 c         1 MOL      0.579905
     22 O5          3.4560    5.8690    2.1530 o         1 MOL     -0.592014
     23 C9          1.0220    5.6450    0.4390 c3        1 MOL     -0.108249
     24 C10         0.7090    6.4070   -0.8950 c3        1 MOL      0.139010
     25 C11        -0.6550    7.1690   -0.8100 c3        1 MOL      0.012763
     26 C12        -0.9980    7.9340   -2.0800 c3        1 MOL     -0.049745
     27 N3         -0.8340    7.1420   -3.2900 n4        1 MOL     -0.308657
     28 H8          1.6050    2.8720   -0.1370 hn        1 MOL      0.112221
     29 H9          3.0510    5.6130   -0.4090 h1        1 MOL      0.071028
     30 H10         1.0910    6.4940    1.1220 hc        1 MOL      0.033185
     31 H11         0.2780    4.9150    0.7720 hc        1 MOL      0.033185
     32 H12         0.6630    5.7130   -1.7310 hc        1 MOL     -0.019816
     33 H13         1.4720    7.1650   -1.0740 hc        1 MOL     -0.019816
     34 H14        -0.5550    7.8560    0.0360 hc        1 MOL      0.030312
     35 H15        -1.5200    6.5410   -0.5700 hc        1 MOL      0.030312
     36 H16        -0.2640    8.7400   -2.1610 hx        1 MOL      0.081580
     37 H17        -1.9730    8.4070   -1.9200 hx        1 MOL      0.081580
     38 H18        -0.9320    6.1610   -3.0970 hn        1 MOL      0.319948
     39 H19        -1.6100    7.4640   -3.8540 hn        1 MOL      0.319948
     40 H20        -0.0270    7.2990   -3.8790 hn        1 MOL      0.319948
     41 N4          3.8450    3.6570    1.7240 n         1 MOL     -0.370113
     42 C13         4.8140    3.4750    2.8290 c3        1 MOL     -0.006631
     43 C14         5.9820    2.5950    2.3530 c         1 MOL      0.413645
     44 O6          6.9520    2.4750    3.1420 o         1 MOL     -0.494175
     45 C15         4.1850    2.8830    4.0640 c3        1 MOL     -0.226774
     46 C16         3.6080    1.4560    3.7840 c         1 MOL      0.830903
     47 O7          3.8510    0.7250    2.8160 o         1 MOL     -0.695122
     48 O8          2.8200    1.1020    4.6840 o         1 MOL     -0.695122
     49 H21         3.7490    2.8750    1.0970 hn        1 MOL      0.095014
     50 H22         5.2140    4.4450    3.1450 h1        1 MOL      0.117054
     51 H23         3.4080    3.5380    4.4610 hc        1 MOL      0.077982
     52 H24         4.8660    2.6750    4.8980 hc        1 MOL      0.077982
     53 N5          5.9450    2.1610    1.0520 n         1 MOL     -0.304175
     54 C17         7.1220    1.5640    0.4400 c3        1 MOL     -0.086399
     55 C18         7.5470    0.1560    0.9110 c         1 MOL      0.432851
     56 O9          8.7260   -0.1820    0.9280 o         1 MOL     -0.539854
     57 H25         5.0750    2.2240    0.5330 hn        1 MOL      0.238250
     58 H26         7.9460    2.2710    0.4980 h1        1 MOL      0.093998
     59 H27         6.9240    1.5950   -0.6360 h1        1 MOL      0.093998
     60 N6          6.5700   -0.6820    1.4610 n         1 MOL     -0.179300
     61 C19         6.8370   -2.1050    1.7720 c3        1 MOL     -0.099292
     62 C20         6.8140   -3.0630    0.6180 c         1 MOL      0.361429
     63 O10         7.2370   -4.2180    0.7700 o         1 MOL     -0.519856
     64 C21         5.7570   -2.6090    2.7430 c3        1 MOL     -0.241880
     65 C22         4.2750   -2.3330    2.3130 c         1 MOL      0.746335
     66 O11         4.0060   -2.2810    1.0890 o         1 MOL     -0.727191
     67 O12         3.3530   -2.2840    3.1810 o         1 MOL     -0.727191
     68 H28         5.6310   -0.3250    1.4220 hn        1 MOL      0.182314
     69 H29         7.8040   -2.1550    2.2680 h1        1 MOL      0.154319
     70 H30         5.9850   -2.1370    3.6930 hc        1 MOL      0.087355
     71 H31         5.8950   -3.6760    2.9250 hc        1 MOL      0.087355
     72 N7          6.5830   -2.5280   -0.5740 n         1 MOL     -0.060332
     73 C23         6.6810   -3.3190   -1.7760 c3        1 MOL     -0.229850
     74 C24         5.3750   -4.0610   -2.0100 c         1 MOL      0.673104
     75 O13         5.3160   -5.0460   -2.7210 o         1 MOL     -0.614237
     76 H32         6.3550   -1.5450   -0.6150 hn        1 MOL      0.223180
     77 H33         7.5000   -4.0470   -1.7950 h1        1 MOL      0.096933
     78 H34         6.6620   -2.7220   -2.6910 h1        1 MOL      0.096933
     79 N8          4.2670   -3.6280   -1.4040 n         1 MOL     -0.416127
     80 C25         2.9350   -4.2630   -1.4920 c3        1 MOL     -0.047030
     81 C26         1.7570   -3.3090   -1.3730 c         1 MOL      0.742738
     82 O14         1.9190   -2.1600   -0.9000 o         1 MOL     -0.677531
     83 C27         2.7750   -5.2810   -0.3750 c3        1 MOL      0.513209
     84 C28         3.1310   -6.6660   -0.8450 c3        1 MOL     -0.424913
     85 O15         3.4100   -4.9590    0.8560 oh        1 MOL     -0.633842
     86 H35         4.3310   -2.8580   -0.7460 hn        1 MOL      0.220378
     87 H36         2.9030   -4.8480   -2.4100 h1        1 MOL      0.067522
     88 H37         1.7530   -5.2700    0.0230 h1        1 MOL     -0.053547
     89 H38         3.6910   -4.0460    0.7520 ho        1 MOL      0.422239
     90 H39         3.0980   -7.4630   -0.0970 hc        1 MOL      0.098249
     91 H40         2.3930   -6.9210   -1.6070 hc        1 MOL      0.098249
     92 H41         4.1490   -6.6850   -1.2380 hc        1 MOL      0.098249
     93 N9          0.5680   -3.7510   -1.8180 n         1 MOL     -0.809376
     94 C29        -0.6150   -2.8020   -1.9470 c3        1 MOL      0.281297
     95 C30        -1.8470   -3.3920   -1.2720 c         1 MOL      0.522376
     96 O16        -2.3910   -4.4410   -1.6190 o         1 MOL     -0.566929
     97 C31        -0.8490   -2.4490   -3.4940 c3        1 MOL      0.098171
     98 C32         0.3610   -1.6730   -4.1260 c3        1 MOL      0.191977
     99 C33        -2.1960   -1.8330   -3.7790 c3        1 MOL     -0.329093
    100 C34         0.3740   -1.7790   -5.6480 c3        1 MOL     -0.261190
    101 H42         0.5080   -4.6710   -2.2370 hn        1 MOL      0.351189
    102 H43        -0.3930   -1.9160   -1.3530 h1        1 MOL     -0.046975
    103 H44        -0.8680   -3.4670   -3.8810 hc        1 MOL      0.001544
    104 H45         1.2430   -2.2030   -3.7520 hc        1 MOL     -0.019704
    105 H46         0.5050   -0.6510   -3.7840 hc        1 MOL     -0.019704
    106 H47        -2.2720   -1.5680   -4.8310 hc        1 MOL      0.065979
    107 H48        -3.0410   -2.4820   -3.5330 hc        1 MOL      0.065979
    108 H49        -2.2920   -0.8720   -3.2690 hc        1 MOL      0.065979
    109 H50        -0.5040   -1.2570   -6.0450 hc        1 MOL      0.056958
    110 H51         1.2260   -1.2140   -6.0120 hc        1 MOL      0.056958
    111 H52         0.3860   -2.8160   -5.9890 hc        1 MOL      0.056958
    112 N10        -2.3900   -2.5860   -0.3770 n         1 MOL     -0.319739
    113 C35        -3.7220   -2.8980    0.3110 c3        1 MOL     -0.015185
    114 C36        -4.9400   -2.3350   -0.4270 c         1 MOL      0.466952
    115 O17        -4.9200   -1.4060   -1.2330 o         1 MOL     -0.458628
    116 C37        -3.7100   -2.4130    1.7610 c3        1 MOL      0.173350
    117 C38        -2.4370   -2.6160    2.4900 c3        1 MOL     -0.381494
    118 O18        -4.0000   -1.0750    1.8550 oh        1 MOL     -0.439831
    119 H53        -1.7940   -1.8690   -0.0030 hn        1 MOL      0.334504
    120 H54        -3.6910   -3.9930    0.3480 h1        1 MOL      0.078573
    121 H55        -4.5110   -3.0170    2.1940 h1        1 MOL      0.018985
    122 H56        -3.5730   -0.8230    2.6750 ho        1 MOL      0.389943
    123 H57        -1.7160   -1.8960    2.1010 hc        1 MOL      0.106455
    124 H58        -2.5940   -2.4680    3.5530 hc        1 MOL      0.106455
    125 H59        -2.1240   -3.6610    2.4380 hc        1 MOL      0.106455
    126 N11        -6.0810   -2.8480   -0.0610 n         1 MOL     -0.244719
    127 C39        -7.3610   -2.4360   -0.5690 c3        1 MOL     -0.041006
    128 C40        -7.5690   -0.8940   -0.2060 c         1 MOL      0.341475
    129 O19        -8.0900   -0.2020   -1.1230 o         1 MOL     -0.486947
    130 C41        -8.4980   -3.2540    0.0790 c3        1 MOL      0.323200
    131 C42        -9.8250   -3.0170   -0.6790 c3        1 MOL     -0.305946
    132 O20        -8.1440   -4.6330   -0.1310 oh        1 MOL     -0.584958
    133 H60        -6.0800   -3.5840    0.6300 hn        1 MOL      0.189360
    134 H61        -7.3270   -2.6250   -1.6430 h1        1 MOL      0.155009
    135 H62        -8.6390   -2.8680    1.0890 h1        1 MOL     -0.043291
    136 H63        -8.7810   -5.1560    0.3780 ho        1 MOL      0.391568
    137 H64       -10.6380   -3.6140   -0.2630 hc        1 MOL      0.086668
    138 H65       -10.1260   -1.9640   -0.6280 hc        1 MOL      0.086668
    139 H66        -9.8030   -3.2130   -1.7520 hc        1 MOL      0.086668
    140 N12        -7.0240   -0.3450    0.8790 n         1 MOL     -0.211280
    141 C43        -7.0750    1.1020    1.0790 c3        1 MOL      0.060669
    142 C44        -6.0530    1.8960    0.2230 c         1 MOL      0.316478
    143 O21        -6.3360    2.9890   -0.3080 o         1 MOL     -0.511366
    144 C45        -6.8360    1.4020    2.5350 c3        1 MOL     -0.083627
    145 C46        -7.4850    0.3770    3.4690 c3        1 MOL     -0.006168
    146 C47        -7.4370    0.8960    4.8990 c3        1 MOL      0.007457
    147 C48        -8.3970    0.2480    5.8380 c3        1 MOL      0.081467
    148 N13        -9.7710    0.7590    5.7280 n4        1 MOL     -0.312027
    149 H67        -6.3950   -0.8770    1.4770 hn        1 MOL      0.122347
    150 H68        -8.0740    1.4170    0.7670 h1        1 MOL      0.089995
    151 H69        -7.2410    2.3860    2.7670 hc        1 MOL      0.032952
    152 H70        -5.7840    1.3040    2.7940 hc        1 MOL      0.032952
    153 H71        -6.9720   -0.5800    3.4920 hc        1 MOL     -0.001248
    154 H72        -8.4820    0.2340    3.0650 hc        1 MOL     -0.001248
    155 H73        -7.6390    1.9630    4.9800 hc        1 MOL      0.042616
    156 H74        -6.4490    0.7150    5.3320 hc        1 MOL      0.042616
    157 H75        -8.0990    0.2930    6.8830 hx        1 MOL      0.059109
    158 H76        -8.4330   -0.8010    5.5340 hx        1 MOL      0.059109
    159 H77       -10.2250    0.2760    4.9600 hn        1 MOL      0.281490
    160 H78       -10.3160    0.5710    6.5570 hn        1 MOL      0.281490
    161 H79        -9.8350    1.7580    5.5810 hn        1 MOL      0.281490
    162 N14        -4.8670    1.3210    0.0370 n         1 MOL     -0.051214
    163 C49        -3.9370    1.9730   -0.8370 c3        1 MOL     -0.246867
    164 C50        -4.3800    1.9830   -2.3420 c         1 MOL      0.600822
    165 O22        -3.8500    2.8020   -3.0300 o         1 MOL     -0.566424
    166 C51        -2.5820    1.2910   -0.7460 c3        1 MOL      0.141747
    167 C52        -1.7330    1.7810    0.4790 c3        1 MOL     -0.180103
    168 C53        -0.3860    0.9890    0.4950 c         1 MOL      0.717576
    169 O23        -0.4740   -0.2940    0.4660 o         1 MOL     -0.682620
    170 O24         0.7230    1.5210    0.7650 o         1 MOL     -0.682620
    171 H80        -4.6850    0.4220    0.4750 hn        1 MOL      0.119293
    172 H81        -3.8210    3.0190   -0.5830 h1        1 MOL      0.130139
    173 H82        -2.0280    1.4960   -1.6640 hc        1 MOL     -0.005416
    174 H83        -2.6710    0.2130   -0.6360 hc        1 MOL     -0.005416
    175 H84        -2.3030    1.6750    1.3980 hc        1 MOL      0.019473
    176 H85        -1.5900    2.8540    0.2860 hc        1 MOL      0.019473
    177 N15        -5.2400    0.9990   -2.8300 n         1 MOL     -0.226324
    178 C54        -6.0260    1.1460   -4.0500 c3        1 MOL     -0.264734
    179 H86        -7.0710    1.3120   -3.7900 h1        1 MOL      0.105680
    180 H87        -5.6550    1.9970   -4.6220 h1        1 MOL      0.105680
    181 H88        -5.9410    0.2400   -4.6500 h1        1 MOL      0.105680
    182 H89        -5.4830    0.2240   -2.2370 hn        1 MOL      0.228745
    183 Ca1         1.9980   -0.6220    1.3560 Ca        1 MOL      1.765447
    184 O25         0.5510   -0.2050    3.5500 oh        1 MOL     -0.901630
    185 H90        -0.2180   -0.4350    4.0840 ho        1 MOL      0.414916
    186 H91         1.2710   -0.1330    4.1830 ho        1 MOL      0.414916
    187 O26         0.8440   -3.0860    1.6430 oh        1 MOL     -0.901630
    188 H92        -0.0210   -3.2830    2.0120 ho        1 MOL      0.414916
    189 H93         1.4330   -3.6970    2.0850 ho        1 MOL      0.414916
@<TRIPOS>BOND
     1    1    2 1   
     2    1    4 1   
     3    1    5 1   
     4    1    6 1   
     5    2    3 2   
     6    2    7 1   
     7    7    8 1   
     8    7   15 1   
     9    8    9 1   
    10    8   11 1   
    11    8   16 1   
    12    9   10 2   
    13    9   19 1   
    14   11   12 1   
    15   11   17 1   
    16   11   18 1   
    17   12   13 1   
    18   12   14 1   
    19   19   20 1   
    20   19   28 1   
    21   20   21 1   
    22   20   23 1   
    23   20   29 1   
    24   21   22 2   
    25   21   41 1   
    26   23   24 1   
    27   23   30 1   
    28   23   31 1   
    29   24   25 1   
    30   24   32 1   
    31   24   33 1   
    32   25   26 1   
    33   25   34 1   
    34   25   35 1   
    35   26   27 1   
    36   26   36 1   
    37   26   37 1   
    38   27   38 1   
    39   27   39 1   
    40   27   40 1   
    41   41   42 1   
    42   41   49 1   
    43   42   43 1   
    44   42   45 1   
    45   42   50 1   
    46   43   44 2   
    47   43   53 1   
    48   45   46 1   
    49   45   51 1   
    50   45   52 1   
    51   46   47 1   
    52   46   48 1   
    53   53   54 1   
    54   53   57 1   
    55   54   55 1   
    56   54   58 1   
    57   54   59 1   
    58   55   56 2   
    59   55   60 1   
    60   60   61 1   
    61   60   68 1   
    62   61   62 1   
    63   61   64 1   
    64   61   69 1   
    65   62   63 2   
    66   62   72 1   
    67   64   65 1   
    68   64   70 1   
    69   64   71 1   
    70   65   66 1   
    71   65   67 1   
    72   72   73 1   
    73   72   76 1   
    74   73   74 1   
    75   73   77 1   
    76   73   78 1   
    77   74   75 2   
    78   74   79 1   
    79   79   80 1   
    80   79   86 1   
    81   80   81 1   
    82   80   83 1   
    83   80   87 1   
    84   81   82 2   
    85   81   93 1   
    86   83   84 1   
    87   83   85 1   
    88   83   88 1   
    89   84   90 1   
    90   84   91 1   
    91   84   92 1   
    92   85   89 1   
    93   93   94 1   
    94   93  101 1   
    95   94   95 1   
    96   94   97 1   
    97   94  102 1   
    98   95   96 2   
    99   95  112 1   
   100   97   98 1   
   101   97   99 1   
   102   97  103 1   
   103   98  100 1   
   104   98  104 1   
   105   98  105 1   
   106   99  106 1   
   107   99  107 1   
   108   99  108 1   
   109  100  109 1   
   110  100  110 1   
   111  100  111 1   
   112  112  113 1   
   113  112  119 1   
   114  113  114 1   
   115  113  116 1   
   116  113  120 1   
   117  114  115 2   
   118  114  126 1   
   119  116  117 1   
   120  116  118 1   
   121  116  121 1   
   122  117  123 1   
   123  117  124 1   
   124  117  125 1   
   125  118  122 1   
   126  126  127 1   
   127  126  133 1   
   128  127  128 1   
   129  127  130 1   
   130  127  134 1   
   131  128  129 2   
   132  128  140 1   
   133  130  131 1   
   134  130  132 1   
   135  130  135 1   
   136  131  137 1   
   137  131  138 1   
   138  131  139 1   
   139  132  136 1   
   140  140  141 1   
   141  140  149 1   
   142  141  142 1   
   143  141  144 1   
   144  141  150 1   
   145  142  143 2   
   146  142  162 1   
   147  144  145 1   
   148  144  151 1   
   149  144  152 1   
   150  145  146 1   
   151  145  153 1   
   152  145  154 1   
   153  146  147 1   
   154  146  155 1   
   155  146  156 1   
   156  147  148 1   
   157  147  157 1   
   158  147  158 1   
   159  148  159 1   
   160  148  160 1   
   161  148  161 1   
   162  162  163 1   
   163  162  171 1   
   164  163  164 1   
   165  163  166 1   
   166  163  172 1   
   167  164  165 2   
   168  164  177 1   
   169  166  167 1   
   170  166  173 1   
   171  166  174 1   
   172  167  168 1   
   173  167  175 1   
   174  167  176 1   
   175  168  169 1   
   176  168  170 1   
   177  177  178 1   
   178  177  182 1   
   179  178  179 1   
   180  178  180 1   
   181  178  181 1   
   182  184  185 1   
   183  184  186 1   
   184  187  188 1   
   185  187  189 1   
@<TRIPOS>SUBSTRUCTURE
     1 MOL         1 TEMP              0 ****  ****    0 ROOT
