@<TRIPOS>MOLECULE
MOL
  179   176     1     0     0
SMALL
resp


@<TRIPOS>ATOM
      1 C1          2.7780    2.5400    4.7540 c3        1 MOL     -0.308003
      2 C2          1.9340    2.6780    3.4850 c         1 MOL      0.491739
      3 O1          2.3610    2.7640    2.3560 o         1 MOL     -0.533329
      4 H1          3.2470    3.4970    4.9840 hc        1 MOL      0.094373
      5 H2          2.1380    2.2410    5.5860 hc        1 MOL      0.094373
      6 H3          3.5490    1.7860    4.5990 hc        1 MOL      0.094373
      7 N1          0.5910    2.7410    3.6160 n         1 MOL     -0.462325
      8 C3         -0.4290    2.7520    2.4870 c3        1 MOL      0.070597
      9 C4         -0.4440    4.1050    1.7510 c         1 MOL      0.387401
     10 O2         -0.9530    5.1040    2.2400 o         1 MOL     -0.560873
     11 C5         -1.8760    2.2480    2.9140 c3        1 MOL     -0.115090
     12 C6         -2.6570    1.5620    1.8200 c         1 MOL      0.712028
     13 O3         -3.8480    1.2920    1.9740 o         1 MOL     -0.675359
     14 O4         -2.1010    1.3840    0.7180 o         1 MOL     -0.675359
     15 H4          0.2360    2.7960    4.5540 hn        1 MOL      0.288624
     16 H5         -0.0600    1.9930    1.8090 h1        1 MOL      0.004335
     17 H6         -2.5820    3.0400    3.1670 hc        1 MOL      0.035521
     18 H7         -1.9320    1.6140    3.7990 hc        1 MOL      0.035521
     19 N2          0.2130    4.1540    0.6240 n         1 MOL     -0.185308
     20 C7          0.4730    5.3590   -0.2250 c3        1 MOL      0.044654
     21 C8         -0.6400    5.5280   -1.1570 c         1 MOL      0.511412
     22 O5         -1.0120    6.6530   -1.4000 o         1 MOL     -0.552327
     23 C9          1.8530    5.3230   -0.9250 c3        1 MOL     -0.515162
     24 C10         3.0810    5.5960   -0.0360 c3        1 MOL      0.317575
     25 C11         3.4070    7.0400    0.4610 c3        1 MOL      0.033950
     26 C12         4.3320    7.0560    1.6710 c3        1 MOL     -0.490225
     27 N3          3.8250    6.2630    2.8090 n4        1 MOL     -0.106675
     28 H8          0.5090    3.2170    0.3860 hn        1 MOL      0.426208
     29 H9          0.4200    6.2630    0.3860 h1        1 MOL      0.047025
     30 H10         1.8270    6.0540   -1.7250 hc        1 MOL      0.151308
     31 H11         1.8940    4.2890   -1.2630 hc        1 MOL      0.151308
     32 H12         3.9860    5.3020   -0.5680 hc        1 MOL     -0.043932
     33 H13         2.9030    4.9650    0.8360 hc        1 MOL     -0.043932
     34 H14         2.5180    7.6240    0.6690 hc        1 MOL      0.068379
     35 H15         3.7770    7.5830   -0.4130 hc        1 MOL      0.068379
     36 H16         4.4340    8.0490    2.1090 hx        1 MOL      0.217562
     37 H17         5.2650    6.5510    1.4380 hx        1 MOL      0.217562
     38 H18         3.9410    5.2870    2.5960 hn        1 MOL      0.281136
     39 H19         4.2270    6.5440    3.6930 hn        1 MOL      0.281136
     40 H20         2.8400    6.3850    2.9890 hn        1 MOL      0.281136
     41 N4         -1.2230    4.4700   -1.7270 n         1 MOL     -0.341568
     42 C13        -2.4170    4.7490   -2.5440 c3        1 MOL     -0.014282
     43 C14        -3.7470    4.5250   -1.7480 c         1 MOL      0.448814
     44 O6         -4.8160    4.9370   -2.3040 o         1 MOL     -0.528965
     45 C15        -2.4670    3.9610   -3.8010 c3        1 MOL     -0.016662
     46 C16        -2.6450    2.4150   -3.5510 c         1 MOL      0.586466
     47 O7         -2.3640    1.9290   -2.4820 o         1 MOL     -0.681220
     48 O8         -3.1060    1.7820   -4.5070 o         1 MOL     -0.681220
     49 H21        -0.9890    3.5280   -1.4460 hn        1 MOL      0.127962
     50 H22        -2.4410    5.7650   -2.9280 h1        1 MOL      0.121482
     51 H23        -1.6500    4.2190   -4.4740 hc        1 MOL      0.030552
     52 H24        -3.2960    4.3090   -4.4170 hc        1 MOL      0.030552
     53 N5         -3.7140    4.0670   -0.4810 n         1 MOL     -0.242700
     54 C17        -4.9650    4.1020    0.3100 c3        1 MOL     -0.081512
     55 C18        -5.9170    2.9640   -0.0310 c         1 MOL      0.489750
     56 O9         -7.1120    3.0500    0.2140 o         1 MOL     -0.583303
     57 H25        -2.8700    3.6780   -0.0680 hn        1 MOL      0.198045
     58 H26        -5.3870    5.0930    0.4190 h1        1 MOL      0.093155
     59 H27        -4.6460    3.8500    1.3240 h1        1 MOL      0.093155
     60 N6         -5.4540    1.8750   -0.5550 n         1 MOL     -0.062316
     61 C19        -6.2940    0.8250   -1.1600 c3        1 MOL     -0.125119
     62 C20        -6.6260   -0.3410   -0.1400 c         1 MOL      0.328460
     63 O10        -7.2920   -1.3050   -0.5560 o         1 MOL     -0.500292
     64 C21        -5.6310    0.2970   -2.5510 c3        1 MOL     -0.298352
     65 C22        -4.4230   -0.6810   -2.3850 c         1 MOL      0.793411
     66 N7         -4.0280   -1.3560   -3.4580 n         1 MOL     -0.884372
     67 O11        -3.8250   -0.8290   -1.3610 o         1 MOL     -0.540160
     68 H28        -4.4500    1.8120   -0.6910 hn        1 MOL      0.093261
     69 H29        -7.2730    1.1900   -1.4570 h1        1 MOL      0.161180
     70 H30        -5.3120    1.1450   -3.1580 hc        1 MOL      0.123448
     71 H31        -6.3290   -0.2830   -3.1460 hc        1 MOL      0.123448
     72 H32        -4.4610   -1.1270   -4.3340 hn        1 MOL      0.382969
     73 H33        -3.3190   -2.0830   -3.4860 hn        1 MOL      0.382969
     74 N8         -6.0400   -0.2850    1.0260 n         1 MOL     -0.048637
     75 C23        -6.2580   -1.1520    2.2350 c3        1 MOL     -0.297158
     76 C24        -5.1330   -2.2200    2.3550 c         1 MOL      0.561908
     77 O12        -5.3740   -3.2230    3.0150 o         1 MOL     -0.573810
     78 H34        -5.4650    0.5330    1.1820 hn        1 MOL      0.183649
     79 H35        -7.2210   -1.6610    2.2700 h1        1 MOL      0.148521
     80 H36        -6.1250   -0.5090    3.1050 h1        1 MOL      0.148521
     81 N9         -4.0660   -2.1670    1.6450 n         1 MOL     -0.208760
     82 C25        -3.0610   -3.1580    1.4760 c3        1 MOL      0.029803
     83 C26        -1.6350   -2.5200    1.5370 c         1 MOL      0.722817
     84 O13        -1.3610   -1.4530    1.0210 o         1 MOL     -0.754526
     85 C27        -3.2080   -3.9250    0.1780 c3        1 MOL      0.285166
     86 C28        -4.4690   -4.7890    0.1070 ca        1 MOL     -0.436531
     87 C29        -5.6710   -4.2780   -0.3450 ca        1 MOL      0.186675
     88 C30        -4.4560   -6.0850    0.6350 ca        1 MOL      0.186675
     89 C31        -6.8240   -5.0680   -0.4200 ca        1 MOL     -0.479068
     90 C32        -5.5450   -6.9230    0.4290 ca        1 MOL     -0.479068
     91 C33        -6.7890   -6.4410   -0.0060 ca        1 MOL      0.574942
     92 O14        -7.8800   -7.1740   -0.1670 oh        1 MOL     -0.562253
     93 H37        -4.0620   -1.3400    1.0710 hn        1 MOL      0.055143
     94 H38        -3.1420   -3.8080    2.3500 h1        1 MOL      0.028392
     95 H39        -2.4420   -4.6960    0.1180 hc        1 MOL     -0.020089
     96 H40        -3.1520   -3.2910   -0.7070 hc        1 MOL     -0.020089
     97 H41        -5.7950   -3.2910   -0.7630 ha        1 MOL      0.049972
     98 H42        -3.5150   -6.5370    0.9370 ha        1 MOL      0.049972
     99 H43        -7.7320   -4.6390   -0.8120 ha        1 MOL      0.169352
    100 H44        -5.4040   -7.9730    0.6330 ha        1 MOL      0.169352
    101 H45        -8.5390   -6.7260   -0.7040 ho        1 MOL      0.401595
    102 N10        -0.6680   -3.3150    2.0600 n         1 MOL     -0.694191
    103 C34         0.7600   -2.9270    2.0760 c3        1 MOL      0.100120
    104 C35         1.5420   -3.7650    1.0310 c         1 MOL      0.660338
    105 O15         1.2880   -4.9360    0.9100 o         1 MOL     -0.581014
    106 C36         1.2980   -3.0040    3.5540 c3        1 MOL      0.022330
    107 C37         0.4480   -2.1120    4.5210 c3        1 MOL      0.066797
    108 C38         2.7400   -2.5830    3.5830 c3        1 MOL     -0.244019
    109 C39        -0.0620   -0.7420    3.9990 c3        1 MOL     -0.209013
    110 H46        -0.9180   -4.0680    2.6740 hn        1 MOL      0.346684
    111 H47         0.7380   -1.8990    1.7130 h1        1 MOL      0.102758
    112 H48         1.2760   -4.0370    3.8860 hc        1 MOL      0.044559
    113 H49         0.9910   -1.9910    5.4590 hc        1 MOL     -0.004403
    114 H50        -0.3840   -2.7160    4.8730 hc        1 MOL     -0.004403
    115 H51         3.3830   -3.3360    3.1210 hc        1 MOL      0.059029
    116 H52         2.8110   -1.6740    2.9840 hc        1 MOL      0.059029
    117 H53         3.1480   -2.3390    4.5650 hc        1 MOL      0.059029
    118 H54        -0.9520   -0.8580    3.3860 hc        1 MOL      0.073587
    119 H55        -0.3190   -0.0700    4.8240 hc        1 MOL      0.073587
    120 H56         0.6970   -0.2240    3.4000 hc        1 MOL      0.073587
    121 N11         2.5740   -3.2100    0.4890 n         1 MOL     -0.296144
    122 C40         3.3980   -3.8620   -0.5550 c3        1 MOL     -0.121706
    123 C41         4.9280   -3.6180   -0.3950 c         1 MOL      0.637293
    124 O16         5.3540   -2.7670    0.2820 o         1 MOL     -0.477517
    125 C42         2.9620   -3.2620   -1.9510 c3        1 MOL     -0.067470
    126 O17         3.3530   -1.8730   -2.1870 oh        1 MOL     -0.529112
    127 H57         2.7800   -2.2470    0.7270 hn        1 MOL      0.189035
    128 H58         3.1640   -4.9280   -0.5490 h1        1 MOL      0.092156
    129 H59         1.8760   -3.2570   -2.0300 h1        1 MOL      0.084465
    130 H60         3.3900   -3.8660   -2.7590 h1        1 MOL      0.084465
    131 H61         2.6070   -1.3280   -1.8980 ho        1 MOL      0.384698
    132 N12         5.7090   -4.4470   -1.1190 n         1 MOL     -0.553111
    133 C43         7.1840   -4.5270   -1.0180 c3        1 MOL      0.140856
    134 C44         7.7750   -3.1560   -1.3710 c         1 MOL      0.461260
    135 O18         8.6010   -2.6170   -0.6250 o         1 MOL     -0.483788
    136 C45         7.6520   -5.6730   -1.8160 c3        1 MOL     -0.256151
    137 H62         5.2480   -5.0690   -1.7730 hn        1 MOL      0.311807
    138 H63         7.4770   -4.7250    0.0180 h1        1 MOL      0.086936
    139 H64         8.6890   -5.8890   -1.5500 hc        1 MOL      0.079681
    140 H65         7.0760   -6.5580   -1.5750 hc        1 MOL      0.079681
    141 H66         7.4180   -5.3870   -2.8450 hc        1 MOL      0.079681
    142 N13         7.2020   -2.5040   -2.4560 n         1 MOL     -0.415580
    143 C46         7.5100   -1.1840   -2.9670 c3        1 MOL      0.056572
    144 C47         7.1230   -0.0550   -1.9180 c         1 MOL      0.333643
    145 O19         7.9430    0.8110   -1.5450 o         1 MOL     -0.486797
    146 C48         6.9520   -0.9090   -4.3240 c3        1 MOL     -0.241426
    147 H67         6.4660   -3.0440   -2.8800 hn        1 MOL      0.322846
    148 H68         8.6000   -1.1720   -2.9480 h1        1 MOL      0.103971
    149 H69         5.8920   -1.1020   -4.2030 hc        1 MOL      0.075168
    150 H70         7.1810    0.0740   -4.7250 hc        1 MOL      0.075168
    151 H71         7.2590   -1.6600   -5.0620 hc        1 MOL      0.075168
    152 N14         5.9240   -0.1680   -1.3450 n         1 MOL     -0.028440
    153 C49         5.4310    0.6780   -0.1530 c3        1 MOL     -0.312717
    154 C50         6.2430    0.4480    1.0700 c         1 MOL      0.551991
    155 O20         6.5280    1.4590    1.7130 o         1 MOL     -0.576685
    156 C51         3.9220    0.4030    0.1360 c3        1 MOL      0.102670
    157 C52         3.0400    1.0610   -0.9040 c3        1 MOL      0.089878
    158 C53         1.5930    0.6560   -0.8120 c         1 MOL      0.682199
    159 O21         1.3210   -0.4730   -1.3310 o         1 MOL     -0.751504
    160 O22         0.7290    1.4850   -0.5600 o         1 MOL     -0.751504
    161 H72         5.3590   -0.9770   -1.5500 hn        1 MOL      0.071845
    162 H73         5.4930    1.7350   -0.4130 h1        1 MOL      0.154229
    163 H74         3.7940    1.0010    1.0390 hc        1 MOL     -0.021032
    164 H75         3.7170   -0.6510    0.3230 hc        1 MOL     -0.021032
    165 H76         3.4500    0.8750   -1.9000 hc        1 MOL     -0.036506
    166 H77         3.0690    2.1500   -0.7620 hc        1 MOL     -0.036506
    167 N15         6.7260   -0.7730    1.3700 n         1 MOL     -0.196021
    168 C54         7.5650   -1.0910    2.5290 c3        1 MOL     -0.140659
    169 H78         8.0470   -0.1820    2.8880 h1        1 MOL      0.076049
    170 H79         6.9450   -1.5110    3.3220 h1        1 MOL      0.076049
    171 H80         8.3260   -1.8150    2.2390 h1        1 MOL      0.076049
    172 H81         6.5100   -1.4690    0.6760 hn        1 MOL      0.216302
    173 Ca1        -1.3430    0.0600   -1.1770 Ca        1 MOL      1.783633
    174 O23        -0.7210   -2.4230   -2.1780 oh        1 MOL     -0.881586
    175 H82        -0.0650   -2.1430   -2.8220 ho        1 MOL      0.421383
    176 H83        -0.7870   -3.3700   -2.3030 ho        1 MOL      0.421383
    177 O24        -1.1160   -0.2730   -3.8070 oh        1 MOL     -0.881586
    178 H84        -0.8040   -0.9160   -4.4390 ho        1 MOL      0.421383
    179 H85        -1.4890    0.4290   -4.3350 ho        1 MOL      0.421383
@<TRIPOS>BOND
     1    1    2 1   
     2    1    4 1   
     3    1    5 1   
     4    1    6 1   
     5    2    3 2   
     6    2    7 1   
     7    7    8 1   
     8    7   15 1   
     9    8    9 1   
    10    8   11 1   
    11    8   16 1   
    12    9   10 2   
    13    9   19 1   
    14   11   12 1   
    15   11   17 1   
    16   11   18 1   
    17   12   13 1   
    18   12   14 1   
    19   19   20 1   
    20   19   28 1   
    21   20   21 1   
    22   20   23 1   
    23   20   29 1   
    24   21   22 2   
    25   21   41 1   
    26   23   24 1   
    27   23   30 1   
    28   23   31 1   
    29   24   25 1   
    30   24   32 1   
    31   24   33 1   
    32   25   26 1   
    33   25   34 1   
    34   25   35 1   
    35   26   27 1   
    36   26   36 1   
    37   26   37 1   
    38   27   38 1   
    39   27   39 1   
    40   27   40 1   
    41   41   42 1   
    42   41   49 1   
    43   42   43 1   
    44   42   45 1   
    45   42   50 1   
    46   43   44 2   
    47   43   53 1   
    48   45   46 1   
    49   45   51 1   
    50   45   52 1   
    51   46   47 1   
    52   46   48 1   
    53   53   54 1   
    54   53   57 1   
    55   54   55 1   
    56   54   58 1   
    57   54   59 1   
    58   55   56 2   
    59   55   60 1   
    60   60   61 1   
    61   60   68 1   
    62   61   62 1   
    63   61   64 1   
    64   61   69 1   
    65   62   63 2   
    66   62   74 1   
    67   64   65 1   
    68   64   70 1   
    69   64   71 1   
    70   65   66 1   
    71   65   67 2   
    72   66   72 1   
    73   66   73 1   
    74   74   75 1   
    75   74   78 1   
    76   75   76 1   
    77   75   79 1   
    78   75   80 1   
    79   76   77 2   
    80   76   81 1   
    81   81   82 1   
    82   81   93 1   
    83   82   83 1   
    84   82   85 1   
    85   82   94 1   
    86   83   84 2   
    87   83  102 1   
    88   85   86 1   
    89   85   95 1   
    90   85   96 1   
    91   86   87 ar  
    92   86   88 ar  
    93   87   89 ar  
    94   87   97 1   
    95   88   90 ar  
    96   88   98 1   
    97   89   91 ar  
    98   89   99 1   
    99   90   91 ar  
   100   90  100 1   
   101   91   92 1   
   102   92  101 1   
   103  102  103 1   
   104  102  110 1   
   105  103  104 1   
   106  103  106 1   
   107  103  111 1   
   108  104  105 2   
   109  104  121 1   
   110  106  107 1   
   111  106  108 1   
   112  106  112 1   
   113  107  109 1   
   114  107  113 1   
   115  107  114 1   
   116  108  115 1   
   117  108  116 1   
   118  108  117 1   
   119  109  118 1   
   120  109  119 1   
   121  109  120 1   
   122  121  122 1   
   123  121  127 1   
   124  122  123 1   
   125  122  125 1   
   126  122  128 1   
   127  123  124 2   
   128  123  132 1   
   129  125  126 1   
   130  125  129 1   
   131  125  130 1   
   132  126  131 1   
   133  132  133 1   
   134  132  137 1   
   135  133  134 1   
   136  133  136 1   
   137  133  138 1   
   138  134  135 2   
   139  134  142 1   
   140  136  139 1   
   141  136  140 1   
   142  136  141 1   
   143  142  143 1   
   144  142  147 1   
   145  143  144 1   
   146  143  146 1   
   147  143  148 1   
   148  144  145 2   
   149  144  152 1   
   150  146  149 1   
   151  146  150 1   
   152  146  151 1   
   153  152  153 1   
   154  152  161 1   
   155  153  154 1   
   156  153  156 1   
   157  153  162 1   
   158  154  155 2   
   159  154  167 1   
   160  156  157 1   
   161  156  163 1   
   162  156  164 1   
   163  157  158 1   
   164  157  165 1   
   165  157  166 1   
   166  158  159 1   
   167  158  160 1   
   168  167  168 1   
   169  167  172 1   
   170  168  169 1   
   171  168  170 1   
   172  168  171 1   
   173  174  175 1   
   174  174  176 1   
   175  177  178 1   
   176  177  179 1   
@<TRIPOS>SUBSTRUCTURE
     1 MOL         1 TEMP              0 ****  ****    0 ROOT
