@<TRIPOS>MOLECULE
MOL
  179   176     1     0     0
SMALL
resp


@<TRIPOS>ATOM
      1 C1          1.2740    3.0380    5.6820 c3        1 MOL     -0.252821
      2 C2          0.6630    2.8310    4.2950 c         1 MOL      0.704351
      3 O1          1.4280    2.9220    3.3130 o         1 MOL     -0.589248
      4 H1          1.4690    4.0990    5.8370 hc        1 MOL      0.070050
      5 H2          0.5780    2.6820    6.4420 hc        1 MOL      0.070050
      6 H3          2.2090    2.4830    5.7550 hc        1 MOL      0.070050
      7 N1         -0.6870    2.5130    4.1570 n         1 MOL     -0.681223
      8 C3         -1.4320    2.3870    2.8820 c3        1 MOL      0.139793
      9 C4         -1.4760    3.7360    2.1640 c         1 MOL      0.654073
     10 O2         -2.3550    4.6040    2.3010 o         1 MOL     -0.562631
     11 C5         -2.8310    1.7450    3.2300 c3        1 MOL     -0.391627
     12 C6         -3.4080    0.9790    2.0460 c         1 MOL      0.715530
     13 O3         -2.7690    0.8450    1.0200 o         1 MOL     -0.619240
     14 O4         -4.5040    0.4540    2.2890 o         1 MOL     -0.619240
     15 H4         -1.2490    2.4930    4.9930 hn        1 MOL      0.351985
     16 H5         -0.8570    1.6830    2.2920 h1        1 MOL      0.089056
     17 H6         -3.4800    2.5440    3.5930 hc        1 MOL      0.099920
     18 H7         -2.7350    0.9360    3.9530 hc        1 MOL      0.099920
     19 N2         -0.3910    4.0560    1.4350 n         1 MOL     -0.404155
     20 C7         -0.1930    5.3080    0.6350 c3        1 MOL     -0.036439
     21 C8         -1.2600    5.6370   -0.4560 c         1 MOL      0.537595
     22 O5         -1.6430    6.7890   -0.5340 o         1 MOL     -0.543960
     23 C9          1.0940    5.0720   -0.0620 c3        1 MOL      0.366280
     24 C10         1.6140    6.4200   -0.7320 c3        1 MOL     -0.653961
     25 C11         3.0950    6.3160   -1.1310 c3        1 MOL      0.175092
     26 C12         3.6210    7.5950   -1.8940 c3        1 MOL      0.025427
     27 N3          4.8440    7.2830   -2.5850 n4        1 MOL     -0.341393
     28 H8          0.3060    3.3290    1.3550 hn        1 MOL      0.194540
     29 H9         -0.0910    6.2710    1.1270 h1        1 MOL      0.059747
     30 H10         0.8620    4.3720   -0.8720 hc        1 MOL     -0.018783
     31 H11         1.8470    4.7850    0.6670 hc        1 MOL     -0.018783
     32 H12         1.6650    7.1540    0.0800 hc        1 MOL      0.170730
     33 H13         0.9810    6.7490   -1.5450 hc        1 MOL      0.170730
     34 H14         3.2150    5.4510   -1.7820 hc        1 MOL      0.004273
     35 H15         3.7100    6.1350   -0.2430 hc        1 MOL      0.004273
     36 H16         3.7880    8.4730   -1.2750 hx        1 MOL      0.089446
     37 H17         2.8930    7.8440   -2.6710 hx        1 MOL      0.089446
     38 H18         5.5900    7.3160   -1.9010 hn        1 MOL      0.321125
     39 H19         4.8140    6.3450   -2.9580 hn        1 MOL      0.321125
     40 H20         5.0460    7.9240   -3.3380 hn        1 MOL      0.321125
     41 N4         -1.7170    4.6370   -1.2240 n         1 MOL     -0.432778
     42 C13        -3.0140    4.8350   -1.9630 c3        1 MOL      0.148522
     43 C14        -4.3220    4.6030   -1.1170 c         1 MOL      0.460954
     44 O6         -5.3320    5.3100   -1.3260 o         1 MOL     -0.562430
     45 C15        -3.0300    3.8700   -3.1810 c3        1 MOL     -0.387681
     46 C16        -2.6690    2.4150   -2.9140 c         1 MOL      0.770607
     47 O7         -2.5130    1.6400   -3.8820 o         1 MOL     -0.713865
     48 O8         -2.4080    2.0360   -1.7500 o         1 MOL     -0.713865
     49 H21        -1.2980    3.7270   -1.1200 hn        1 MOL      0.268822
     50 H22        -3.0570    5.8780   -2.2730 h1        1 MOL      0.066023
     51 H23        -2.3180    4.3470   -3.8460 hc        1 MOL      0.112690
     52 H24        -3.9880    3.8500   -3.6930 hc        1 MOL      0.112690
     53 N5         -4.4040    3.5590   -0.2670 n         1 MOL     -0.132113
     54 C17        -5.6380    3.1150    0.4160 c3        1 MOL      0.005949
     55 C18        -6.3640    1.9620   -0.2780 c         1 MOL      0.562695
     56 O9         -7.5740    2.1380   -0.5090 o         1 MOL     -0.573025
     57 H25        -3.5480    3.0340   -0.1830 hn        1 MOL      0.098494
     58 H26        -6.2770    3.9770    0.5850 h1        1 MOL      0.055320
     59 H27        -5.3310    2.8080    1.4230 h1        1 MOL      0.055320
     60 N6         -5.6980    0.8740   -0.6860 n         1 MOL     -0.188274
     61 C19        -6.2850   -0.2570   -1.3480 c3        1 MOL     -0.034579
     62 C20        -6.3670   -1.5220   -0.4880 c         1 MOL      0.417246
     63 O10        -6.7640   -2.5890   -0.9400 o         1 MOL     -0.530940
     64 C21        -5.5450   -0.4910   -2.6160 c3        1 MOL     -0.122458
     65 C22        -4.1620   -1.0560   -2.4020 c         1 MOL      0.259745
     66 N7         -3.4350   -1.3500   -3.4620 n         1 MOL     -0.478759
     67 O11        -3.6390   -1.1470   -1.2760 o         1 MOL     -0.193591
     68 H28        -4.7960    0.7110   -0.2490 hn        1 MOL     -0.131318
     69 H29        -7.3430   -0.0770   -1.5180 h1        1 MOL      0.120419
     70 H30        -5.4050    0.4700   -3.1130 hc        1 MOL      0.095176
     71 H31        -6.1440   -1.0230   -3.3550 hc        1 MOL      0.095176
     72 H32        -3.8800   -1.2050   -4.3680 hn        1 MOL      0.282259
     73 H33        -2.7660   -2.1050   -3.5240 hn        1 MOL      0.282259
     74 N8         -6.1230   -1.4410    0.8420 n         1 MOL     -0.181067
     75 C23        -6.4130   -2.5220    1.7830 c3        1 MOL     -0.244486
     76 C24        -5.2100   -3.3320    2.2430 c         1 MOL      0.559752
     77 O12        -5.3500   -4.1410    3.1990 o         1 MOL     -0.582252
     78 H34        -5.7950   -0.5250    1.1310 hn        1 MOL      0.237553
     79 H35        -7.1180   -3.2910    1.4550 h1        1 MOL      0.129226
     80 H36        -6.7620   -1.9720    2.6530 h1        1 MOL      0.129226
     81 N9         -4.0820   -3.2450    1.5220 n         1 MOL     -0.169443
     82 C25        -2.9220   -4.1140    1.7420 c3        1 MOL     -0.071837
     83 C26        -1.5990   -3.2850    1.5020 c         1 MOL      0.646944
     84 O13        -1.5740   -2.2510    0.8140 o         1 MOL     -0.695549
     85 C27        -2.9780   -5.4590    0.9600 c3        1 MOL     -0.155406
     86 C28        -2.8810   -5.3000   -0.5370 ca        1 MOL      0.052036
     87 C29        -1.5960   -5.4180   -1.1450 ca        1 MOL     -0.153509
     88 C30        -3.9860   -5.1880   -1.3860 ca        1 MOL     -0.153509
     89 C31        -1.4330   -5.3740   -2.5240 ca        1 MOL     -0.240935
     90 C32        -3.8410   -5.0190   -2.7260 ca        1 MOL     -0.240935
     91 C33        -2.5810   -5.1330   -3.3180 ca        1 MOL      0.347291
     92 O14        -2.4150   -5.0160   -4.6680 oh        1 MOL     -0.565282
     93 H37        -4.0670   -2.4690    0.8740 hn        1 MOL      0.116361
     94 H38        -2.8750   -4.3850    2.7970 h1        1 MOL      0.081842
     95 H39        -3.9450   -5.9040    1.2050 hc        1 MOL      0.078625
     96 H40        -2.1680   -6.1200    1.2750 hc        1 MOL      0.078625
     97 H41        -0.7200   -5.4110   -0.5130 ha        1 MOL      0.147426
     98 H42        -4.9460   -5.1780   -0.8970 ha        1 MOL      0.147426
     99 H43        -0.5140   -5.6900   -2.9750 ha        1 MOL      0.133064
    100 H44        -4.7560   -4.8650   -3.2820 ha        1 MOL      0.133064
    101 H45        -3.1990   -4.9220   -5.2070 ho        1 MOL      0.414231
    102 N10        -0.5370   -3.7530    2.1600 n         1 MOL     -0.554661
    103 C34         0.7280   -3.0910    2.1360 c3        1 MOL      0.102306
    104 C35         1.6760   -3.8900    1.2680 c         1 MOL      0.546107
    105 O15         1.6040   -5.1070    1.2230 o         1 MOL     -0.568914
    106 C36         1.1940   -2.9650    3.6110 c3        1 MOL      0.074998
    107 C37         0.1580   -2.5310    4.7090 c3        1 MOL     -0.027399
    108 C38         2.4160   -2.0420    3.7530 c3        1 MOL     -0.342144
    109 C39        -0.6260   -1.2600    4.4810 c3        1 MOL     -0.087664
    110 H46        -0.6890   -4.6010    2.6700 hn        1 MOL      0.340157
    111 H47         0.5780   -2.0760    1.7500 h1        1 MOL      0.069407
    112 H48         1.5810   -3.9490    3.8770 hc        1 MOL      0.027748
    113 H49         0.6320   -2.4910    5.6830 hc        1 MOL      0.011490
    114 H50        -0.5090   -3.3950    4.8050 hc        1 MOL      0.011490
    115 H51         2.0820   -1.0450    3.4550 hc        1 MOL      0.076486
    116 H52         2.8970   -2.1340    4.7280 hc        1 MOL      0.076486
    117 H53         3.2390   -2.3090    3.0880 hc        1 MOL      0.076486
    118 H54        -1.4800   -1.3530    3.8050 hc        1 MOL      0.042621
    119 H55        -1.0690   -0.9280    5.4170 hc        1 MOL      0.042621
    120 H56         0.0730   -0.5020    4.1260 hc        1 MOL      0.042621
    121 N11         2.5510   -3.1570    0.5650 n         1 MOL     -0.443553
    122 C40         3.5130   -3.7750   -0.4000 c3        1 MOL      0.174087
    123 C41         4.9240   -3.2240   -0.1910 c         1 MOL      0.385415
    124 O16         5.0160   -2.1950    0.4670 o         1 MOL     -0.367226
    125 C42         3.0440   -3.6040   -1.8280 c3        1 MOL      0.043266
    126 O17         1.7030   -3.9750   -2.0970 oh        1 MOL     -0.544834
    127 H57         2.5360   -2.1470    0.5890 hn        1 MOL      0.363502
    128 H58         3.5000   -4.8550   -0.2170 h1        1 MOL      0.053906
    129 H59         3.7510   -4.1700   -2.4450 h1        1 MOL      0.048759
    130 H60         3.2350   -2.5490   -2.0210 h1        1 MOL      0.048759
    131 H61         1.6410   -4.8340   -2.5240 ho        1 MOL      0.404962
    132 N12         5.9880   -3.8570   -0.6810 n         1 MOL     -0.549773
    133 C43         7.3950   -3.5380   -0.3670 c3        1 MOL      0.317134
    134 C44         7.7800   -2.0640   -0.5430 c         1 MOL      0.362894
    135 O18         8.2780   -1.4280    0.3570 o         1 MOL     -0.484830
    136 C45         8.2060   -4.5730   -1.1770 c3        1 MOL     -0.555552
    137 H62         5.8960   -4.6780   -1.2660 hn        1 MOL      0.297293
    138 H63         7.5630   -3.7690    0.6840 h1        1 MOL      0.057254
    139 H64         7.8330   -5.5560   -0.9130 hc        1 MOL      0.160445
    140 H65         8.2560   -4.3520   -2.2530 hc        1 MOL      0.160445
    141 H66         9.1950   -4.5610   -0.7300 hc        1 MOL      0.160445
    142 N13         7.4710   -1.4820   -1.7340 n         1 MOL     -0.278630
    143 C46         8.0960   -0.1910   -2.0560 c3        1 MOL     -0.012410
    144 C47         7.2130    0.8640   -1.4140 c         1 MOL      0.518611
    145 O19         7.7550    1.8840   -1.0230 o         1 MOL     -0.509647
    146 C48         8.1010   -0.1800   -3.5970 c3        1 MOL     -0.161984
    147 H67         7.0600   -2.0110   -2.4920 hn        1 MOL      0.225169
    148 H68         9.1280   -0.1730   -1.7160 h1        1 MOL      0.136731
    149 H69         8.4950   -1.0540   -4.1200 hc        1 MOL      0.051619
    150 H70         7.0580   -0.1350   -3.9100 hc        1 MOL      0.051619
    151 H71         8.6750    0.6810   -3.9280 hc        1 MOL      0.051619
    152 N14         5.9240    0.5770   -1.1580 n         1 MOL     -0.387876
    153 C49         5.2250    1.4380   -0.2790 c3        1 MOL     -0.014533
    154 C50         5.7670    1.3570    1.1950 c         1 MOL      0.405680
    155 O20         5.8570    2.3530    1.9370 o         1 MOL     -0.549985
    156 C51         3.7940    0.9320   -0.2330 c3        1 MOL     -0.037858
    157 C52         2.6340    1.7680    0.3050 c3        1 MOL     -0.119600
    158 C53         1.2680    1.1770    0.0250 c         1 MOL      0.743725
    159 O21         0.2250    1.8600   -0.0360 o         1 MOL     -0.788593
    160 O22         1.2180   -0.1010   -0.2280 o         1 MOL     -0.788593
    161 H72         5.4980   -0.3070   -1.4030 hn        1 MOL      0.223883
    162 H73         5.2500    2.4870   -0.5720 h1        1 MOL      0.043372
    163 H74         3.8680   -0.0010    0.3220 hc        1 MOL      0.007321
    164 H75         3.4690    0.6560   -1.2380 hc        1 MOL      0.007321
    165 H76         2.7330    2.7860   -0.0540 hc        1 MOL      0.079855
    166 H77         2.6990    1.7210    1.3980 hc        1 MOL      0.079855
    167 N15         6.2190    0.1990    1.7090 n         1 MOL     -0.032545
    168 C54         6.9030    0.2040    3.0480 c3        1 MOL     -0.278387
    169 H78         7.9520   -0.0630    2.9200 h1        1 MOL      0.118005
    170 H79         6.8340    1.2000    3.4880 h1        1 MOL      0.118005
    171 H80         6.4230   -0.5200    3.7070 h1        1 MOL      0.118005
    172 H81         6.0700   -0.6440    1.1710 hn        1 MOL      0.101318
    173 Ca1        -1.2850   -0.0200   -0.8470 Ca        1 MOL      1.673797
    174 O23        -0.9490   -2.3620   -1.9480 oh        1 MOL     -0.785798
    175 H82        -0.0100   -2.5660   -2.0320 ho        1 MOL      0.372071
    176 H83        -1.3060   -3.0930   -1.4360 ho        1 MOL      0.372071
    177 O24        -0.4270    0.0600   -3.4330 oh        1 MOL     -0.785798
    178 H84        -1.2060    0.5490   -3.7360 ho        1 MOL      0.372071
    179 H85         0.3060    0.6140   -3.6830 ho        1 MOL      0.372071
@<TRIPOS>BOND
     1    1    2 1   
     2    1    4 1   
     3    1    5 1   
     4    1    6 1   
     5    2    3 2   
     6    2    7 1   
     7    7    8 1   
     8    7   15 1   
     9    8    9 1   
    10    8   11 1   
    11    8   16 1   
    12    9   10 2   
    13    9   19 1   
    14   11   12 1   
    15   11   17 1   
    16   11   18 1   
    17   12   13 1   
    18   12   14 1   
    19   19   20 1   
    20   19   28 1   
    21   20   21 1   
    22   20   23 1   
    23   20   29 1   
    24   21   22 2   
    25   21   41 1   
    26   23   24 1   
    27   23   30 1   
    28   23   31 1   
    29   24   25 1   
    30   24   32 1   
    31   24   33 1   
    32   25   26 1   
    33   25   34 1   
    34   25   35 1   
    35   26   27 1   
    36   26   36 1   
    37   26   37 1   
    38   27   38 1   
    39   27   39 1   
    40   27   40 1   
    41   41   42 1   
    42   41   49 1   
    43   42   43 1   
    44   42   45 1   
    45   42   50 1   
    46   43   44 2   
    47   43   53 1   
    48   45   46 1   
    49   45   51 1   
    50   45   52 1   
    51   46   47 1   
    52   46   48 1   
    53   53   54 1   
    54   53   57 1   
    55   54   55 1   
    56   54   58 1   
    57   54   59 1   
    58   55   56 2   
    59   55   60 1   
    60   60   61 1   
    61   60   68 1   
    62   61   62 1   
    63   61   64 1   
    64   61   69 1   
    65   62   63 2   
    66   62   74 1   
    67   64   65 1   
    68   64   70 1   
    69   64   71 1   
    70   65   66 1   
    71   65   67 2   
    72   66   72 1   
    73   66   73 1   
    74   74   75 1   
    75   74   78 1   
    76   75   76 1   
    77   75   79 1   
    78   75   80 1   
    79   76   77 2   
    80   76   81 1   
    81   81   82 1   
    82   81   93 1   
    83   82   83 1   
    84   82   85 1   
    85   82   94 1   
    86   83   84 2   
    87   83  102 1   
    88   85   86 1   
    89   85   95 1   
    90   85   96 1   
    91   86   87 ar  
    92   86   88 ar  
    93   87   89 ar  
    94   87   97 1   
    95   88   90 ar  
    96   88   98 1   
    97   89   91 ar  
    98   89   99 1   
    99   90   91 ar  
   100   90  100 1   
   101   91   92 1   
   102   92  101 1   
   103  102  103 1   
   104  102  110 1   
   105  103  104 1   
   106  103  106 1   
   107  103  111 1   
   108  104  105 2   
   109  104  121 1   
   110  106  107 1   
   111  106  108 1   
   112  106  112 1   
   113  107  109 1   
   114  107  113 1   
   115  107  114 1   
   116  108  115 1   
   117  108  116 1   
   118  108  117 1   
   119  109  118 1   
   120  109  119 1   
   121  109  120 1   
   122  121  122 1   
   123  121  127 1   
   124  122  123 1   
   125  122  125 1   
   126  122  128 1   
   127  123  124 2   
   128  123  132 1   
   129  125  126 1   
   130  125  129 1   
   131  125  130 1   
   132  126  131 1   
   133  132  133 1   
   134  132  137 1   
   135  133  134 1   
   136  133  136 1   
   137  133  138 1   
   138  134  135 2   
   139  134  142 1   
   140  136  139 1   
   141  136  140 1   
   142  136  141 1   
   143  142  143 1   
   144  142  147 1   
   145  143  144 1   
   146  143  146 1   
   147  143  148 1   
   148  144  145 2   
   149  144  152 1   
   150  146  149 1   
   151  146  150 1   
   152  146  151 1   
   153  152  153 1   
   154  152  161 1   
   155  153  154 1   
   156  153  156 1   
   157  153  162 1   
   158  154  155 2   
   159  154  167 1   
   160  156  157 1   
   161  156  163 1   
   162  156  164 1   
   163  157  158 1   
   164  157  165 1   
   165  157  166 1   
   166  158  159 1   
   167  158  160 1   
   168  167  168 1   
   169  167  172 1   
   170  168  169 1   
   171  168  170 1   
   172  168  171 1   
   173  174  175 1   
   174  174  176 1   
   175  177  178 1   
   176  177  179 1   
@<TRIPOS>SUBSTRUCTURE
     1 MOL         1 TEMP              0 ****  ****    0 ROOT
