@<TRIPOS>MOLECULE
MOL
  175   173     1     0     0
SMALL
resp


@<TRIPOS>ATOM
      1 C1          0.1230    4.0720    5.7800 c3        1 MOL     -0.381182
      2 C2         -0.5370    4.0000    4.3560 c         1 MOL      0.657625
      3 O1          0.2630    4.1400    3.4260 o         1 MOL     -0.522823
      4 H1          0.8730    3.2870    5.8720 hc        1 MOL      0.092534
      5 H2          0.5970    5.0450    5.9130 hc        1 MOL      0.092534
      6 H3         -0.6430    3.9340    6.5430 hc        1 MOL      0.092534
      7 N1         -1.8020    3.6450    4.2190 n         1 MOL     -0.597484
      8 C3         -2.5390    3.5670    2.9420 c3        1 MOL      0.227154
      9 C4         -2.5030    4.8320    2.0520 c         1 MOL      0.539651
     10 O2         -2.4890    6.0060    2.4630 o         1 MOL     -0.560600
     11 C5         -3.8660    2.9750    3.1070 c3        1 MOL     -0.310933
     12 C6         -4.4150    2.8060    1.7020 c         1 MOL      0.678523
     13 O3         -5.2370    3.6960    1.3410 o         1 MOL     -0.616740
     14 O4         -3.9380    2.0060    0.9040 o         1 MOL     -0.616740
     15 H4         -2.4240    3.6070    5.0180 hn        1 MOL      0.323264
     16 H5         -1.9150    2.8370    2.4140 h1        1 MOL      0.045002
     17 H6         -4.5340    3.5910    3.7150 hc        1 MOL      0.050366
     18 H7         -3.6240    2.0160    3.5630 hc        1 MOL      0.050366
     19 N2         -2.3530    4.6330    0.6960 n         1 MOL     -0.426748
     20 C7         -2.4070    5.6070   -0.4400 c3        1 MOL      0.371848
     21 C8         -3.5300    5.3080   -1.5520 c         1 MOL      0.380368
     22 O5         -3.7820    6.1120   -2.4840 o         1 MOL     -0.549027
     23 C9         -1.0300    5.7770   -1.0130 c3        1 MOL     -0.298474
     24 H8         -2.3120    3.6650    0.4090 hn        1 MOL      0.147199
     25 H9         -2.7220    6.5820   -0.0560 h1        1 MOL     -0.005354
     26 H10        -0.3040    6.0840   -0.2590 hc        1 MOL      0.072887
     27 H11        -0.6280    4.8320   -1.3750 hc        1 MOL      0.072887
     28 H12        -0.9790    6.4830   -1.8500 hc        1 MOL      0.072887
     29 N3         -4.1040    4.0430   -1.4750 n         1 MOL     -0.258807
     30 C10        -4.8150    3.3950   -2.6140 c3        1 MOL      0.148910
     31 C11        -6.0380    2.5740   -2.2350 c         1 MOL      0.300705
     32 O6         -6.7620    2.1950   -3.1680 o         1 MOL     -0.546554
     33 C12        -3.8200    2.6010   -3.5430 c3        1 MOL     -0.208560
     34 C13        -3.1760    1.4210   -2.8070 c         1 MOL      0.744794
     35 O7         -1.9770    1.2120   -2.9620 o         1 MOL     -0.699564
     36 O8         -3.8730    0.7200   -2.0650 o         1 MOL     -0.699564
     37 H13        -4.1110    3.6110   -0.5590 hn        1 MOL      0.134012
     38 H14        -5.3120    4.1450   -3.2250 h1        1 MOL      0.065340
     39 H15        -3.0730    3.2780   -3.9640 hc        1 MOL      0.048897
     40 H16        -4.4700    2.2690   -4.3410 hc        1 MOL      0.048897
     41 N4         -6.2890    2.1380   -0.9770 n         1 MOL     -0.053017
     42 C14        -7.3490    1.2490   -0.5960 c3        1 MOL     -0.259716
     43 C15        -7.3120   -0.2310   -1.0220 c         1 MOL      0.532705
     44 O9         -8.2940   -0.9120   -0.7160 o         1 MOL     -0.616544
     45 H17        -5.7260    2.5780   -0.2660 hn        1 MOL      0.093156
     46 H18        -8.3050    1.6360   -0.9650 h1        1 MOL      0.113350
     47 H19        -7.4540    1.2690    0.4830 h1        1 MOL      0.113350
     48 N5         -6.2890   -0.7630   -1.6790 n         1 MOL     -0.317564
     49 C16        -6.1770   -2.1590   -2.2230 c3        1 MOL      0.003633
     50 C17        -6.1960   -3.1620   -1.0730 c         1 MOL      0.491125
     51 O10        -6.2510   -4.3600   -1.4240 o         1 MOL     -0.584007
     52 C18        -4.9130   -2.3830   -3.1420 c3        1 MOL     -0.134248
     53 C19        -3.5880   -2.4360   -2.4910 c         1 MOL      0.564368
     54 N6         -2.5840   -2.9970   -3.1150 n         1 MOL     -0.651049
     55 O11        -3.3800   -2.2000   -1.3170 o         1 MOL     -0.554911
     56 H20        -5.5300   -0.1450   -1.9480 hn        1 MOL      0.287131
     57 H21        -7.0320   -2.3390   -2.8790 h1        1 MOL      0.098547
     58 H22        -4.9160   -1.6230   -3.9240 hc        1 MOL      0.062171
     59 H23        -5.1400   -3.3400   -3.6230 hc        1 MOL      0.062171
     60 H24        -2.5930   -3.0690   -4.1210 hn        1 MOL      0.334022
     61 H25        -1.7020   -2.9660   -2.6190 hn        1 MOL      0.334022
     62 N7         -6.0760   -2.8400    0.2230 n         1 MOL     -0.224526
     63 C20        -6.1410   -3.8240    1.3120 c3        1 MOL     -0.202569
     64 C21        -4.8080   -4.5010    1.7220 c         1 MOL      0.441756
     65 O12        -4.7990   -5.3620    2.5630 o         1 MOL     -0.546189
     66 H26        -5.9270   -1.8630    0.4480 hn        1 MOL      0.221233
     67 H27        -6.8880   -4.5810    1.0450 h1        1 MOL      0.117102
     68 H28        -6.6510   -3.3780    2.1700 h1        1 MOL      0.117102
     69 N8         -3.7190   -4.0940    1.0690 n         1 MOL      0.004393
     70 C22        -2.3900   -4.7370    1.2950 c3        1 MOL     -0.455707
     71 C23        -1.2330   -3.6990    1.3290 c         1 MOL      0.859189
     72 O13        -1.4430   -2.5580    0.9710 o         1 MOL     -0.669742
     73 C24        -2.1920   -5.7320    0.2090 c3        1 MOL      0.460748
     74 C25        -3.2450   -6.8550   -0.0470 c3        1 MOL     -0.579400
     75 O14        -2.0340   -5.0930   -1.0480 oh        1 MOL     -0.566799
     76 H29        -3.8120   -3.2580    0.5060 hn        1 MOL      0.111828
     77 H30        -2.3490   -5.2450    2.2550 h1        1 MOL      0.128484
     78 H31        -1.2390   -6.2660    0.2900 h1        1 MOL      0.024575
     79 H32        -2.8830   -4.6730   -1.2040 ho        1 MOL      0.353704
     80 H33        -4.1520   -6.3240   -0.3310 hc        1 MOL      0.149623
     81 H34        -2.8640   -7.4490   -0.8790 hc        1 MOL      0.149623
     82 H35        -3.4880   -7.4230    0.8510 hc        1 MOL      0.149623
     83 N9         -0.0890   -4.0690    1.8770 n         1 MOL     -0.629297
     84 C26         1.1640   -3.2170    1.9130 c3        1 MOL     -0.176726
     85 C27         1.9040   -3.2410    0.5140 c         1 MOL      0.592099
     86 O15         2.3840   -4.2970    0.0600 o         1 MOL     -0.584033
     87 C28         2.1950   -3.5550    3.0750 c3        1 MOL      0.278265
     88 C29         1.4750   -3.9940    4.3820 c3        1 MOL      0.169982
     89 C30         3.1840   -2.3770    3.2170 c3        1 MOL     -0.343799
     90 C31         2.4230   -4.4970    5.4740 c3        1 MOL     -0.191897
     91 H36         0.0330   -5.0570    2.0930 hn        1 MOL      0.318144
     92 H37         0.7920   -2.2090    2.1160 h1        1 MOL      0.151672
     93 H38         2.8450   -4.4020    2.8520 hc        1 MOL     -0.044122
     94 H39         0.7440   -4.7790    4.1870 hc        1 MOL     -0.045921
     95 H40         0.9740   -3.0940    4.7500 hc        1 MOL     -0.045921
     96 H41         3.6500   -2.2240    4.1910 hc        1 MOL      0.068893
     97 H42         3.9180   -2.5590    2.4380 hc        1 MOL      0.068893
     98 H43         2.6670   -1.4280    3.1010 hc        1 MOL      0.068893
     99 H44         3.1420   -3.7080    5.6890 hc        1 MOL      0.033665
    100 H45         1.8780   -4.7650    6.3730 hc        1 MOL      0.033665
    101 H46         2.9520   -5.3440    5.0420 hc        1 MOL      0.033665
    102 N10         1.8290   -2.0870   -0.0960 n         1 MOL     -0.172394
    103 C32         2.6870   -1.8650   -1.2900 c3        1 MOL      0.042724
    104 C33         4.1580   -1.4370   -0.9980 c         1 MOL      0.357131
    105 O16         4.3250   -0.7620    0.0630 o         1 MOL     -0.228743
    106 C34         2.0060   -0.8930   -2.2360 c3        1 MOL     -0.344887
    107 C35         0.5740   -1.2890   -2.5490 c         1 MOL      0.835303
    108 O17         0.4830   -1.9830   -3.6000 o         1 MOL     -0.720051
    109 O18        -0.4110   -1.0300   -1.8810 o         1 MOL     -0.720051
    110 H47         1.3160   -1.3050    0.2910 hn        1 MOL      0.127534
    111 H48         2.8070   -2.8550   -1.7330 h1        1 MOL      0.068691
    112 H49         2.5080   -0.7810   -3.2020 hc        1 MOL      0.069460
    113 H50         2.0000    0.0900   -1.7720 hc        1 MOL      0.069460
    114 N11         5.1760   -1.6370   -1.7900 n         1 MOL     -0.582905
    115 C36         6.5030   -1.1400   -1.5410 c3        1 MOL      0.310226
    116 C37         6.7270    0.3460   -1.1310 c         1 MOL      0.294159
    117 O19         7.3140    0.6030   -0.0970 o         1 MOL     -0.472120
    118 C38         7.4590   -1.4150   -2.6870 c3        1 MOL     -0.207876
    119 C39         8.9170   -1.2790   -2.2370 ca        1 MOL      0.009900
    120 C40         9.7910   -0.2430   -2.7730 ca        1 MOL     -0.079907
    121 C41         9.4090   -2.0920   -1.2180 ca        1 MOL     -0.079907
    122 C42        11.1200   -0.1890   -2.3830 ca        1 MOL     -0.181087
    123 C43        10.6950   -2.0580   -0.7580 ca        1 MOL     -0.181087
    124 C44        11.5830   -1.0800   -1.3210 ca        1 MOL     -0.067945
    125 H51         4.8560   -1.7480   -2.7490 hn        1 MOL      0.344199
    126 H52         6.8950   -1.7090   -0.7090 h1        1 MOL      0.076544
    127 H53         7.2500   -0.7150   -3.4850 hc        1 MOL      0.069550
    128 H54         7.3520   -2.4310   -3.0650 hc        1 MOL      0.069550
    129 H55         9.4060    0.4700   -3.4830 ha        1 MOL      0.098907
    130 H56         8.7470   -2.8050   -0.7550 ha        1 MOL      0.098907
    131 H57        11.8070    0.5200   -2.8290 ha        1 MOL      0.130442
    132 H58        10.9600   -2.6850    0.0810 ha        1 MOL      0.130442
    133 H59        12.5980   -1.0420   -0.9520 ha        1 MOL      0.091373
    134 N12         6.3350    1.3270   -1.9340 n         1 MOL     -0.063725
    135 C45         6.2380    2.7540   -1.4370 c3        1 MOL     -0.013499
    136 C46         5.5260    2.9770   -0.0820 c         1 MOL      0.340733
    137 O20         5.8090    4.0020    0.5870 o         1 MOL     -0.502266
    138 C47         5.5130    3.5700   -2.4730 c3        1 MOL     -0.228729
    139 C48         4.6970    2.5380   -3.2920 c3        1 MOL      0.057355
    140 C49         5.5430    1.2280   -3.1770 c3        1 MOL     -0.091115
    141 H60         7.2380    3.1810   -1.3200 h1        1 MOL      0.077664
    142 H61         4.7890    4.2840   -2.0880 hc        1 MOL      0.098329
    143 H62         6.1930    3.9680   -3.2310 hc        1 MOL      0.098329
    144 H63         3.7560    2.3470   -2.7620 hc        1 MOL      0.019981
    145 H64         4.6040    2.9630   -4.2880 hc        1 MOL      0.019981
    146 H65         4.8870    0.3630   -3.0880 h1        1 MOL      0.043636
    147 H66         6.1390    1.1660   -4.0900 h1        1 MOL      0.043636
    148 N13         4.5580    2.0810    0.2950 n         1 MOL     -0.060495
    149 C50         3.9420    2.1710    1.6830 c3        1 MOL     -0.201531
    150 C51         4.8220    1.4260    2.7330 c         1 MOL      0.493078
    151 O21         4.9350    1.8450    3.8940 o         1 MOL     -0.571075
    152 C52         2.5740    1.5520    1.6980 c3        1 MOL      0.105956
    153 C53         1.6690    2.2640    0.7260 c3        1 MOL     -0.267707
    154 C54         0.3320    1.5130    0.6070 c         1 MOL      0.733132
    155 O22        -0.5900    2.0100   -0.0430 o         1 MOL     -0.710235
    156 O23         0.1870    0.3530    0.9490 o         1 MOL     -0.710235
    157 H67         4.3220    1.2190   -0.1650 hn        1 MOL      0.210499
    158 H68         3.8640    3.1850    2.0870 h1        1 MOL      0.133935
    159 H69         2.0740    1.6270    2.6640 hc        1 MOL      0.006617
    160 H70         2.5630    0.4750    1.5540 hc        1 MOL      0.006617
    161 H71         2.1180    2.2000   -0.2660 hc        1 MOL      0.082095
    162 H72         1.5870    3.3020    1.0630 hc        1 MOL      0.082095
    163 N14         5.4180    0.2700    2.3560 n         1 MOL     -0.047515
    164 C55         6.5140   -0.2920    3.2320 c3        1 MOL     -0.304037
    165 H73         6.6370   -1.3550    3.0230 h1        1 MOL      0.105834
    166 H74         7.4480    0.2280    3.0240 h1        1 MOL      0.105834
    167 H75         6.2470   -0.1570    4.2800 h1        1 MOL      0.105834
    168 H76         5.2420   -0.0560    1.4200 hn        1 MOL     -0.006013
    169 Ca1        -2.1320   -0.1370   -0.2880 Ca        1 MOL      1.724584
    170 O24        -1.8310   -0.0020    2.5890 oh        1 MOL     -0.813774
    171 H77        -0.8820   -0.0450    2.4600 ho        1 MOL      0.393883
    172 H78        -1.9420    0.3900    3.4470 ho        1 MOL      0.393883
    173 O25        -4.4180   -0.5730    0.9890 oh        1 MOL     -0.813774
    174 H79        -4.5240    0.3670    0.8540 ho        1 MOL      0.393883
    175 H80        -4.6890   -0.7170    1.8950 ho        1 MOL      0.393883
@<TRIPOS>BOND
     1    1    2 1   
     2    1    4 1   
     3    1    5 1   
     4    1    6 1   
     5    2    3 2   
     6    2    7 1   
     7    7    8 1   
     8    7   15 1   
     9    8    9 1   
    10    8   11 1   
    11    8   16 1   
    12    9   10 2   
    13    9   19 1   
    14   11   12 1   
    15   11   17 1   
    16   11   18 1   
    17   12   13 1   
    18   12   14 1   
    19   19   20 1   
    20   19   24 1   
    21   20   21 1   
    22   20   23 1   
    23   20   25 1   
    24   21   22 2   
    25   21   29 1   
    26   23   26 1   
    27   23   27 1   
    28   23   28 1   
    29   29   30 1   
    30   29   37 1   
    31   30   31 1   
    32   30   33 1   
    33   30   38 1   
    34   31   32 2   
    35   31   41 1   
    36   33   34 1   
    37   33   39 1   
    38   33   40 1   
    39   34   35 1   
    40   34   36 1   
    41   41   42 1   
    42   41   45 1   
    43   42   43 1   
    44   42   46 1   
    45   42   47 1   
    46   43   44 2   
    47   43   48 1   
    48   48   49 1   
    49   48   56 1   
    50   49   50 1   
    51   49   52 1   
    52   49   57 1   
    53   50   51 2   
    54   50   62 1   
    55   52   53 1   
    56   52   58 1   
    57   52   59 1   
    58   53   54 1   
    59   53   55 2   
    60   54   60 1   
    61   54   61 1   
    62   62   63 1   
    63   62   66 1   
    64   63   64 1   
    65   63   67 1   
    66   63   68 1   
    67   64   65 2   
    68   64   69 1   
    69   69   70 1   
    70   69   76 1   
    71   70   71 1   
    72   70   73 1   
    73   70   77 1   
    74   71   72 2   
    75   71   83 1   
    76   73   74 1   
    77   73   75 1   
    78   73   78 1   
    79   74   80 1   
    80   74   81 1   
    81   74   82 1   
    82   75   79 1   
    83   83   84 1   
    84   83   91 1   
    85   84   85 1   
    86   84   87 1   
    87   84   92 1   
    88   85   86 2   
    89   85  102 1   
    90   87   88 1   
    91   87   89 1   
    92   87   93 1   
    93   88   90 1   
    94   88   94 1   
    95   88   95 1   
    96   89   96 1   
    97   89   97 1   
    98   89   98 1   
    99   90   99 1   
   100   90  100 1   
   101   90  101 1   
   102  102  103 1   
   103  102  110 1   
   104  103  104 1   
   105  103  106 1   
   106  103  111 1   
   107  104  105 2   
   108  104  114 1   
   109  106  107 1   
   110  106  112 1   
   111  106  113 1   
   112  107  108 1   
   113  107  109 1   
   114  114  115 1   
   115  114  125 1   
   116  115  116 1   
   117  115  118 1   
   118  115  126 1   
   119  116  117 2   
   120  116  134 1   
   121  118  119 1   
   122  118  127 1   
   123  118  128 1   
   124  119  120 ar  
   125  119  121 ar  
   126  120  122 ar  
   127  120  129 1   
   128  121  123 ar  
   129  121  130 1   
   130  122  124 ar  
   131  122  131 1   
   132  123  124 ar  
   133  123  132 1   
   134  124  133 1   
   135  134  135 1   
   136  134  140 1   
   137  135  136 1   
   138  135  138 1   
   139  135  141 1   
   140  136  137 2   
   141  136  148 1   
   142  138  139 1   
   143  138  142 1   
   144  138  143 1   
   145  139  140 1   
   146  139  144 1   
   147  139  145 1   
   148  140  146 1   
   149  140  147 1   
   150  148  149 1   
   151  148  157 1   
   152  149  150 1   
   153  149  152 1   
   154  149  158 1   
   155  150  151 2   
   156  150  163 1   
   157  152  153 1   
   158  152  159 1   
   159  152  160 1   
   160  153  154 1   
   161  153  161 1   
   162  153  162 1   
   163  154  155 1   
   164  154  156 1   
   165  163  164 1   
   166  163  168 1   
   167  164  165 1   
   168  164  166 1   
   169  164  167 1   
   170  170  171 1   
   171  170  172 1   
   172  173  174 1   
   173  173  175 1   
@<TRIPOS>SUBSTRUCTURE
     1 MOL         1 TEMP              0 ****  ****    0 ROOT
