@<TRIPOS>MOLECULE
MOL
  175   173     1     0     0
SMALL
resp


@<TRIPOS>ATOM
      1 C1          0.4150    3.6230    5.7360 c3        1 MOL     -0.363362
      2 C2         -0.0450    3.7650    4.3150 c         1 MOL      0.735364
      3 O1          0.7410    4.1380    3.4520 o         1 MOL     -0.547193
      4 H1          0.8800    2.6460    5.8710 hc        1 MOL      0.081696
      5 H2          1.1410    4.4040    5.9630 hc        1 MOL      0.081696
      6 H3         -0.4390    3.7140    6.4060 hc        1 MOL      0.081696
      7 N1         -1.3400    3.4070    4.1010 n         1 MOL     -0.722684
      8 C3         -2.0180    3.2660    2.8140 c3        1 MOL      0.410369
      9 C4         -1.9510    4.5240    1.9950 c         1 MOL      0.477833
     10 O2         -1.8560    5.5760    2.5050 o         1 MOL     -0.540855
     11 C5         -3.4210    2.6660    3.0220 c3        1 MOL     -0.382959
     12 C6         -4.0000    1.9430    1.8170 c         1 MOL      0.814386
     13 O3         -5.1630    1.4460    1.8940 o         1 MOL     -0.727419
     14 O4         -3.4630    1.9350    0.6600 o         1 MOL     -0.727419
     15 H4         -1.7130    2.9480    4.9210 hn        1 MOL      0.322410
     16 H5         -1.3710    2.5050    2.3680 h1        1 MOL      0.022056
     17 H6         -4.0580    3.5210    3.2480 hc        1 MOL      0.076048
     18 H7         -3.3800    1.9250    3.8210 hc        1 MOL      0.076048
     19 N2         -1.9950    4.4040    0.6510 n         1 MOL     -0.525936
     20 C7         -1.9910    5.5060   -0.2470 c3        1 MOL      0.462913
     21 C8         -2.9950    5.3200   -1.3850 c         1 MOL      0.365855
     22 O5         -3.0180    6.2150   -2.2350 o         1 MOL     -0.537088
     23 C9         -0.5970    5.8700   -0.6640 c3        1 MOL     -0.303041
     24 H8         -2.1030    3.4720    0.2780 hn        1 MOL      0.349908
     25 H9         -2.3330    6.3990    0.2810 h1        1 MOL     -0.035905
     26 H10        -0.6810    6.8290   -1.1790 hc        1 MOL      0.065791
     27 H11         0.0290    5.9610    0.2180 hc        1 MOL      0.065791
     28 H12        -0.0730    5.0810   -1.2020 hc        1 MOL      0.065791
     29 N3         -3.7410    4.1820   -1.3810 n         1 MOL     -0.289280
     30 C10        -4.6220    3.9910   -2.4910 c3        1 MOL      0.027626
     31 C11        -5.9100    3.2410   -2.0000 c         1 MOL      0.441771
     32 O6         -6.8220    3.1180   -2.7600 o         1 MOL     -0.540613
     33 C12        -3.8400    3.1060   -3.4620 c3        1 MOL     -0.148055
     34 C13        -3.3450    1.6260   -3.0410 c         1 MOL      0.694228
     35 O7         -2.5120    1.1800   -3.7590 o         1 MOL     -0.656949
     36 O8         -3.8400    1.0340   -2.0590 o         1 MOL     -0.656949
     37 H13        -3.8370    3.5920   -0.5770 hn        1 MOL      0.030553
     38 H14        -4.9230    4.9420   -2.9210 h1        1 MOL      0.079317
     39 H15        -2.9570    3.6650   -3.7950 hc        1 MOL      0.036293
     40 H16        -4.4370    2.9350   -4.3580 hc        1 MOL      0.036293
     41 N4         -5.9970    2.5780   -0.8280 n         1 MOL     -0.287049
     42 C14        -7.2150    1.8540   -0.4260 c3        1 MOL     -0.297313
     43 C15        -7.3900    0.3700   -0.8210 c         1 MOL      0.635226
     44 O9         -8.4660   -0.2330   -0.7780 o         1 MOL     -0.632538
     45 H17        -5.2300    2.6430   -0.1810 hn        1 MOL      0.319740
     46 H18        -8.1000    2.3750   -0.7580 h1        1 MOL      0.124479
     47 H19        -7.1660    1.8740    0.6560 h1        1 MOL      0.124479
     48 N5         -6.2790   -0.2680   -1.2570 n         1 MOL     -0.338161
     49 C16        -6.3410   -1.6080   -1.9200 c3        1 MOL     -0.060773
     50 C17        -6.3570   -2.8410   -1.0100 c         1 MOL      0.449048
     51 O10        -6.2560   -3.9920   -1.4860 o         1 MOL     -0.510604
     52 C18        -5.3160   -1.6470   -3.0440 c3        1 MOL     -0.148495
     53 C19        -3.9030   -2.0130   -2.6750 c         1 MOL      0.559102
     54 N6         -3.0390   -2.1410   -3.6370 n         1 MOL     -0.562413
     55 O11        -3.5650   -2.1090   -1.5050 o         1 MOL     -0.650958
     56 H20        -5.4100    0.2540   -1.3240 hn        1 MOL      0.333801
     57 H21        -7.2570   -1.8070   -2.4700 h1        1 MOL      0.126563
     58 H22        -5.2060   -0.6800   -3.5500 hc        1 MOL      0.056892
     59 H23        -5.6670   -2.3360   -3.8120 hc        1 MOL      0.056892
     60 H24        -3.3090   -2.0230   -4.6010 hn        1 MOL      0.322497
     61 H25        -2.1370   -2.5390   -3.3970 hn        1 MOL      0.322497
     62 N7         -6.4730   -2.6450    0.3120 n         1 MOL     -0.262910
     63 C20        -6.5200   -3.7930    1.2450 c3        1 MOL     -0.212212
     64 C21        -5.2130   -4.5720    1.5170 c         1 MOL      0.498196
     65 O12        -5.1570   -5.6700    1.9850 o         1 MOL     -0.547112
     66 H26        -6.6120   -1.7090    0.6700 hn        1 MOL      0.272921
     67 H27        -7.3000   -4.4290    0.8450 h1        1 MOL      0.111209
     68 H28        -6.8900   -3.3950    2.1860 h1        1 MOL      0.111209
     69 N8         -4.0470   -4.0090    1.0420 n         1 MOL     -0.091221
     70 C22        -2.6620   -4.5690    1.1820 c3        1 MOL     -0.310410
     71 C23        -1.5790   -3.5260    1.2480 c         1 MOL      0.766789
     72 O13        -1.7780   -2.4350    0.7930 o         1 MOL     -0.653686
     73 C24        -2.3420   -5.4000   -0.0760 c3        1 MOL      0.661855
     74 C25        -3.0700   -6.6990   -0.0940 c3        1 MOL     -0.549754
     75 O14        -2.6020   -4.6630   -1.2210 oh        1 MOL     -0.680572
     76 H29        -4.1720   -3.1080    0.5960 hn        1 MOL     -0.000512
     77 H30        -2.5660   -5.2480    2.0360 h1        1 MOL      0.099306
     78 H31        -1.2900   -5.6690    0.0590 h1        1 MOL     -0.068416
     79 H32        -2.9640   -3.7960   -1.0210 ho        1 MOL      0.461081
     80 H33        -4.1150   -6.4520   -0.2610 hc        1 MOL      0.126596
     81 H34        -2.7570   -7.3130   -0.9380 hc        1 MOL      0.126596
     82 H35        -2.9930   -7.2640    0.8380 hc        1 MOL      0.126596
     83 N9         -0.5250   -3.8000    2.0220 n         1 MOL     -0.663246
     84 C26         0.7100   -2.9930    1.9590 c3        1 MOL     -0.026901
     85 C27         1.3970   -3.1170    0.5800 c         1 MOL      0.438434
     86 O15         1.5280   -4.2620    0.1050 o         1 MOL     -0.565491
     87 C28         1.6350   -3.2840    3.1810 c3        1 MOL      0.183487
     88 C29         0.9530   -3.0000    4.5390 c3        1 MOL     -0.026185
     89 C30         2.8230   -2.2870    3.1890 c3        1 MOL     -0.347361
     90 C31         1.7230   -3.5110    5.7570 c3        1 MOL     -0.013390
     91 H36        -0.3680   -4.7030    2.4390 hn        1 MOL      0.326830
     92 H37         0.4740   -1.9300    2.0160 h1        1 MOL      0.161843
     93 H38         2.0510   -4.2900    3.1710 hc        1 MOL      0.004523
     94 H39        -0.0340   -3.4670    4.6440 hc        1 MOL     -0.001359
     95 H40         0.6970   -1.9410    4.5950 hc        1 MOL     -0.001359
     96 H41         3.5970   -2.6210    3.8860 hc        1 MOL      0.071940
     97 H42         3.3440   -2.2600    2.2250 hc        1 MOL      0.071940
     98 H43         2.4050   -1.3390    3.5190 hc        1 MOL      0.071940
     99 H44         1.7770   -4.6000    5.7660 hc        1 MOL     -0.000142
    100 H45         2.7490   -3.1490    5.7550 hc        1 MOL     -0.000142
    101 H46         1.3370   -3.2360    6.7400 hc        1 MOL     -0.000142
    102 N10         1.7170   -2.0060   -0.0780 n         1 MOL     -0.063684
    103 C32         2.4690   -1.9500   -1.3080 c3        1 MOL      0.019972
    104 C33         3.9210   -1.4940   -0.9820 c         1 MOL      0.373601
    105 O16         4.1250   -0.8890    0.0570 o         1 MOL     -0.338501
    106 C34         1.8340   -1.0710   -2.3790 c3        1 MOL     -0.147765
    107 C35         0.3440   -1.3820   -2.8230 c         1 MOL      0.672328
    108 O17        -0.5960   -1.0720   -2.0220 o         1 MOL     -0.664071
    109 O18         0.1290   -2.0210   -3.8900 o         1 MOL     -0.664071
    110 H47         1.4520   -1.1050    0.3020 hn        1 MOL      0.114584
    111 H48         2.6290   -2.9030   -1.8200 h1        1 MOL      0.060286
    112 H49         2.4820   -0.8600   -3.2220 hc        1 MOL      0.015237
    113 H50         1.6520   -0.0960   -1.9350 hc        1 MOL      0.015237
    114 N11         4.9400   -1.7940   -1.7740 n         1 MOL     -0.627042
    115 C36         6.4110   -1.4630   -1.4700 c3        1 MOL      0.451487
    116 C37         6.7520   -0.0370   -1.0280 c         1 MOL      0.316666
    117 O19         7.3760    0.0290    0.0290 o         1 MOL     -0.513850
    118 C38         7.3470   -1.7700   -2.6510 c3        1 MOL     -0.429801
    119 C39         8.8000   -1.6940   -2.2290 ca        1 MOL      0.180832
    120 C40         9.5440   -0.6550   -2.8270 ca        1 MOL     -0.163339
    121 C41         9.3920   -2.6520   -1.3820 ca        1 MOL     -0.163339
    122 C42        10.8890   -0.5830   -2.5210 ca        1 MOL     -0.170596
    123 C43        10.7290   -2.4740   -0.9770 ca        1 MOL     -0.170596
    124 C44        11.4190   -1.3550   -1.4810 ca        1 MOL     -0.037098
    125 H51         4.6700   -2.1350   -2.6850 hn        1 MOL      0.331268
    126 H52         6.6860   -2.1100   -0.6380 h1        1 MOL      0.029010
    127 H53         7.1130   -1.0790   -3.4670 hc        1 MOL      0.103641
    128 H54         7.1690   -2.8260   -2.8810 hc        1 MOL      0.103641
    129 H55         9.0870    0.1150   -3.4350 ha        1 MOL      0.132445
    130 H56         8.8560   -3.4560   -0.9130 ha        1 MOL      0.132445
    131 H57        11.4620    0.2280   -2.9380 ha        1 MOL      0.124722
    132 H58        11.1920   -3.0800   -0.2090 ha        1 MOL      0.124722
    133 H59        12.4360   -1.2000   -1.1250 ha        1 MOL      0.077038
    134 N12         6.3190    1.0010   -1.7020 n         1 MOL     -0.080226
    135 C45         6.5550    2.3730   -1.1840 c3        1 MOL      0.085039
    136 C46         5.8640    2.7080    0.1260 c         1 MOL      0.225020
    137 O20         6.2900    3.6150    0.8470 o         1 MOL     -0.495094
    138 C47         6.1150    3.3140   -2.3430 c3        1 MOL     -0.141916
    139 C48         6.0380    2.4180   -3.5640 c3        1 MOL     -0.036436
    140 C49         5.5200    1.0990   -2.9160 c3        1 MOL     -0.040778
    141 H60         7.6340    2.4370   -1.0600 h1        1 MOL      0.058922
    142 H61         5.0840    3.6090   -2.1490 hc        1 MOL      0.071397
    143 H62         6.7990    4.1560   -2.4300 hc        1 MOL      0.071397
    144 H63         5.3810    2.6730   -4.4040 hc        1 MOL      0.026524
    145 H64         7.0030    2.1500   -3.9980 hc        1 MOL      0.026524
    146 H65         4.4440    1.1470   -2.7610 h1        1 MOL      0.067358
    147 H66         5.6750    0.2460   -3.5820 h1        1 MOL      0.067358
    148 N13         4.8120    2.0010    0.4020 n         1 MOL      0.081218
    149 C50         4.1030    2.0990    1.6970 c3        1 MOL     -0.181732
    150 C51         4.8550    1.3230    2.8440 c         1 MOL      0.460461
    151 O21         4.9110    1.7500    3.9720 o         1 MOL     -0.557848
    152 C52         2.6960    1.3670    1.5650 c3        1 MOL      0.020913
    153 C53         2.0470    1.6470    0.1970 c3        1 MOL      0.028880
    154 C54         0.5590    1.3200    0.2540 c         1 MOL      0.638063
    155 O22        -0.3410    2.0360   -0.2730 o         1 MOL     -0.761071
    156 O23         0.1570    0.3130    0.8370 o         1 MOL     -0.761071
    157 H67         4.3740    1.5620   -0.3920 hn        1 MOL      0.103530
    158 H68         3.8660    3.1130    2.0180 h1        1 MOL      0.123825
    159 H69         2.0350    1.6220    2.3850 hc        1 MOL      0.027826
    160 H70         2.7040    0.2820    1.6600 hc        1 MOL      0.027826
    161 H71         2.6730    1.1730   -0.5560 hc        1 MOL      0.003713
    162 H72         2.2030    2.7110   -0.0100 hc        1 MOL      0.003713
    163 N14         5.5420    0.2270    2.5460 n         1 MOL     -0.017943
    164 C55         6.4550   -0.5270    3.4170 c3        1 MOL     -0.261623
    165 H73         6.2210   -1.5900    3.3560 h1        1 MOL      0.094628
    166 H74         7.4840   -0.3620    3.0960 h1        1 MOL      0.094628
    167 H75         6.3370   -0.1900    4.4470 h1        1 MOL      0.094628
    168 H76         5.4480   -0.0690    1.5780 hn        1 MOL      0.049738
    169 Ca1        -2.1370   -0.0130   -0.3680 Ca        1 MOL      1.702640
    170 O24        -1.8020   -0.1640    2.7190 oh        1 MOL     -0.653166
    171 H77        -0.8660   -0.2750    2.5650 ho        1 MOL      0.337795
    172 H78        -1.9490   -0.5050    3.5900 ho        1 MOL      0.337795
    173 O25        -4.2580   -0.9240    1.1750 oh        1 MOL     -0.653166
    174 H79        -4.8540   -0.1970    1.3490 ho        1 MOL      0.337795
    175 H80        -3.8720   -1.1210    2.0320 ho        1 MOL      0.337795
@<TRIPOS>BOND
     1    1    2 1   
     2    1    4 1   
     3    1    5 1   
     4    1    6 1   
     5    2    3 2   
     6    2    7 1   
     7    7    8 1   
     8    7   15 1   
     9    8    9 1   
    10    8   11 1   
    11    8   16 1   
    12    9   10 2   
    13    9   19 1   
    14   11   12 1   
    15   11   17 1   
    16   11   18 1   
    17   12   13 1   
    18   12   14 1   
    19   19   20 1   
    20   19   24 1   
    21   20   21 1   
    22   20   23 1   
    23   20   25 1   
    24   21   22 2   
    25   21   29 1   
    26   23   26 1   
    27   23   27 1   
    28   23   28 1   
    29   29   30 1   
    30   29   37 1   
    31   30   31 1   
    32   30   33 1   
    33   30   38 1   
    34   31   32 2   
    35   31   41 1   
    36   33   34 1   
    37   33   39 1   
    38   33   40 1   
    39   34   35 1   
    40   34   36 1   
    41   41   42 1   
    42   41   45 1   
    43   42   43 1   
    44   42   46 1   
    45   42   47 1   
    46   43   44 2   
    47   43   48 1   
    48   48   49 1   
    49   48   56 1   
    50   49   50 1   
    51   49   52 1   
    52   49   57 1   
    53   50   51 2   
    54   50   62 1   
    55   52   53 1   
    56   52   58 1   
    57   52   59 1   
    58   53   54 1   
    59   53   55 2   
    60   54   60 1   
    61   54   61 1   
    62   62   63 1   
    63   62   66 1   
    64   63   64 1   
    65   63   67 1   
    66   63   68 1   
    67   64   65 2   
    68   64   69 1   
    69   69   70 1   
    70   69   76 1   
    71   70   71 1   
    72   70   73 1   
    73   70   77 1   
    74   71   72 2   
    75   71   83 1   
    76   73   74 1   
    77   73   75 1   
    78   73   78 1   
    79   74   80 1   
    80   74   81 1   
    81   74   82 1   
    82   75   79 1   
    83   83   84 1   
    84   83   91 1   
    85   84   85 1   
    86   84   87 1   
    87   84   92 1   
    88   85   86 2   
    89   85  102 1   
    90   87   88 1   
    91   87   89 1   
    92   87   93 1   
    93   88   90 1   
    94   88   94 1   
    95   88   95 1   
    96   89   96 1   
    97   89   97 1   
    98   89   98 1   
    99   90   99 1   
   100   90  100 1   
   101   90  101 1   
   102  102  103 1   
   103  102  110 1   
   104  103  104 1   
   105  103  106 1   
   106  103  111 1   
   107  104  105 2   
   108  104  114 1   
   109  106  107 1   
   110  106  112 1   
   111  106  113 1   
   112  107  108 1   
   113  107  109 1   
   114  114  115 1   
   115  114  125 1   
   116  115  116 1   
   117  115  118 1   
   118  115  126 1   
   119  116  117 2   
   120  116  134 1   
   121  118  119 1   
   122  118  127 1   
   123  118  128 1   
   124  119  120 ar  
   125  119  121 ar  
   126  120  122 ar  
   127  120  129 1   
   128  121  123 ar  
   129  121  130 1   
   130  122  124 ar  
   131  122  131 1   
   132  123  124 ar  
   133  123  132 1   
   134  124  133 1   
   135  134  135 1   
   136  134  140 1   
   137  135  136 1   
   138  135  138 1   
   139  135  141 1   
   140  136  137 2   
   141  136  148 1   
   142  138  139 1   
   143  138  142 1   
   144  138  143 1   
   145  139  140 1   
   146  139  144 1   
   147  139  145 1   
   148  140  146 1   
   149  140  147 1   
   150  148  149 1   
   151  148  157 1   
   152  149  150 1   
   153  149  152 1   
   154  149  158 1   
   155  150  151 2   
   156  150  163 1   
   157  152  153 1   
   158  152  159 1   
   159  152  160 1   
   160  153  154 1   
   161  153  161 1   
   162  153  162 1   
   163  154  155 1   
   164  154  156 1   
   165  163  164 1   
   166  163  168 1   
   167  164  165 1   
   168  164  166 1   
   169  164  167 1   
   170  170  171 1   
   171  170  172 1   
   172  173  174 1   
   173  173  175 1   
@<TRIPOS>SUBSTRUCTURE
     1 MOL         1 TEMP              0 ****  ****    0 ROOT
