@<TRIPOS>MOLECULE
MOL
  169   169     1     0     0
SMALL
resp


@<TRIPOS>ATOM
      1 C1          1.0330    5.7380    4.6410 c3        1 MOL     -0.298180
      2 C2          0.3040    5.4310    3.3270 c         1 MOL      0.818047
      3 O1          0.9070    5.5550    2.3120 o         1 MOL     -0.581477
      4 H1          1.1820    4.8130    5.1980 hc        1 MOL      0.064351
      5 H2          2.0010    6.1910    4.4240 hc        1 MOL      0.064351
      6 H3          0.4350    6.4270    5.2370 hc        1 MOL      0.064351
      7 N1         -0.9740    4.9390    3.4030 n         1 MOL     -0.812331
      8 C3         -1.7990    4.3220    2.2970 c3        1 MOL      0.546320
      9 C4         -2.9710    5.2140    1.9140 c         1 MOL      0.425604
     10 O2         -3.4270    6.1450    2.6520 o         1 MOL     -0.576743
     11 C5         -2.2240    2.8910    2.6290 c3        1 MOL     -0.313352
     12 C6         -2.5400    1.9910    1.4920 c         1 MOL      0.822182
     13 O3         -2.9660    0.8560    1.6560 o         1 MOL     -0.754985
     14 O4         -2.3560    2.2910    0.3100 o         1 MOL     -0.754985
     15 H4         -1.5310    5.0060    4.2520 hn        1 MOL      0.320962
     16 H5         -1.1620    4.2060    1.4210 h1        1 MOL     -0.011550
     17 H6         -3.0230    2.8600    3.3630 hc        1 MOL      0.054649
     18 H7         -1.3220    2.4120    3.0180 hc        1 MOL      0.054649
     19 N2         -3.4930    5.0420    0.7210 n         1 MOL     -0.605412
     20 C7         -4.4410    5.8430   -0.0340 c3        1 MOL      0.482562
     21 C8         -5.1100    5.1720   -1.2020 c         1 MOL      0.190498
     22 O5         -5.8730    5.8010   -1.9350 o         1 MOL     -0.507123
     23 C9         -3.7310    7.1340   -0.4430 c3        1 MOL     -0.299844
     24 H8         -3.0240    4.2730    0.2470 hn        1 MOL      0.260874
     25 H9         -5.2440    6.1370    0.6490 h1        1 MOL      0.007153
     26 H10        -3.0030    6.8740   -1.2210 hc        1 MOL      0.074827
     27 H11        -4.5290    7.7950   -0.7980 hc        1 MOL      0.074827
     28 H12        -3.1950    7.6580    0.3550 hc        1 MOL      0.074827
     29 N3         -4.8610    3.8730   -1.4680 n         1 MOL     -0.220184
     30 C10        -5.4270    3.1310   -2.6850 c3        1 MOL      0.119427
     31 C11        -6.6260    2.3250   -2.2890 c         1 MOL      0.376526
     32 O6         -7.3820    1.9210   -3.1950 o         1 MOL     -0.540108
     33 C12        -4.3580    2.2020   -3.3420 c3        1 MOL     -0.240498
     34 C13        -3.6840    1.1350   -2.4760 c         1 MOL      0.839194
     35 O7         -4.2230    0.7870   -1.3960 o         1 MOL     -0.786169
     36 O8         -2.5890    0.6370   -2.7810 o         1 MOL     -0.786169
     37 H13        -4.1490    3.3550   -0.9680 hn        1 MOL      0.223961
     38 H14        -5.6870    3.8610   -3.4470 h1        1 MOL      0.087004
     39 H15        -3.5720    2.8450   -3.7330 hc        1 MOL      0.061725
     40 H16        -4.7350    1.7370   -4.2610 hc        1 MOL      0.061725
     41 N4         -6.8080    2.0530   -0.9590 n         1 MOL     -0.281270
     42 C14        -7.9650    1.1990   -0.4670 c3        1 MOL     -0.242429
     43 C15        -7.7850   -0.3270   -0.7130 c         1 MOL      0.615448
     44 O9         -8.5370   -1.1560   -0.2190 o         1 MOL     -0.622211
     45 H17        -6.1440    2.4060   -0.2790 hn        1 MOL      0.250820
     46 H18        -8.8020    1.5120   -1.0910 h1        1 MOL      0.125252
     47 H19        -8.2260    1.4250    0.5720 h1        1 MOL      0.125252
     48 N5         -6.6990   -0.7970   -1.3480 n         1 MOL     -0.376668
     49 C16        -6.5660   -2.1890   -1.7230 c3        1 MOL     -0.096088
     50 C17        -6.4650   -3.2040   -0.6180 c         1 MOL      0.560787
     51 O10        -6.4080   -4.3840   -1.0080 o         1 MOL     -0.574626
     52 C18        -5.3930   -2.3840   -2.6940 c3        1 MOL     -0.087278
     53 C19        -3.9980   -2.5180   -2.0810 c         1 MOL      0.716161
     54 N6         -2.9910   -2.9740   -2.8160 n         1 MOL     -0.711165
     55 O11        -3.6490   -2.1210   -0.9890 o         1 MOL     -0.763698
     56 H20        -6.0850   -0.1360   -1.7920 hn        1 MOL      0.331697
     57 H21        -7.5150   -2.4150   -2.2130 h1        1 MOL      0.122562
     58 H22        -5.4070   -1.4590   -3.2780 hc        1 MOL      0.042992
     59 H23        -5.4680   -3.0980   -3.5160 hc        1 MOL      0.042992
     60 H24        -3.1220   -3.2410   -3.7790 hn        1 MOL      0.318784
     61 H25        -2.0100   -2.8390   -2.5740 hn        1 MOL      0.318784
     62 N7         -6.4040   -2.8770    0.6840 n         1 MOL     -0.272256
     63 C20        -6.2980   -3.9370    1.6880 c3        1 MOL     -0.171649
     64 C21        -4.9200   -4.4270    2.1540 c         1 MOL      0.527724
     65 O12        -4.7820   -5.1690    3.1420 o         1 MOL     -0.569920
     66 H26        -6.5480   -1.9230    1.0010 hn        1 MOL      0.289661
     67 H27        -6.9370   -4.7760    1.4390 h1        1 MOL      0.105797
     68 H28        -6.9200   -3.5750    2.5170 h1        1 MOL      0.105797
     69 N8         -3.8140   -3.9880    1.4890 n         1 MOL     -0.429139
     70 C22        -2.4410   -4.5830    1.6330 c3        1 MOL      0.054576
     71 C23        -1.3690   -3.5280    1.5180 c         1 MOL      0.564062
     72 O13        -1.4980   -2.3910    0.9790 o         1 MOL     -0.615990
     73 C24        -2.1550   -5.6550    0.5960 c3        1 MOL      0.503321
     74 C25        -3.1150   -6.8800    0.6700 c3        1 MOL     -0.650157
     75 O14        -2.2680   -5.3410   -0.7510 oh        1 MOL     -0.594575
     76 H29        -4.0330   -3.5290    0.6100 hn        1 MOL      0.321737
     77 H30        -2.3930   -5.1160    2.5870 h1        1 MOL      0.056978
     78 H31        -1.1300   -5.9920    0.7170 h1        1 MOL     -0.059485
     79 H32        -1.4980   -4.8190   -0.9770 ho        1 MOL      0.401050
     80 H33        -4.0480   -6.7130    0.1380 hc        1 MOL      0.163070
     81 H34        -2.5910   -7.7320    0.2250 hc        1 MOL      0.163070
     82 H35        -3.4550   -7.1090    1.6860 hc        1 MOL      0.163070
     83 N9         -0.2180   -3.8840    2.1470 n         1 MOL     -0.446179
     84 C26         0.9900   -3.0720    2.1120 c3        1 MOL      0.047273
     85 C27         1.7780   -3.2530    0.7880 c         1 MOL      0.348058
     86 O15         1.9500   -4.3650    0.3080 o         1 MOL     -0.542207
     87 C28         1.8560   -3.2700    3.3880 c3        1 MOL      0.011094
     88 C29         1.0790   -2.8130    4.6750 c3        1 MOL     -0.026986
     89 C30         3.2670   -2.6410    3.3690 c3        1 MOL     -0.141018
     90 C31         0.2890   -3.8240    5.3690 c3        1 MOL      0.039289
     91 H36        -0.2520   -4.8170    2.5440 hn        1 MOL      0.254440
     92 H37         0.7160   -2.0210    2.1610 h1        1 MOL      0.141089
     93 H38         2.0270   -4.3400    3.5070 hc        1 MOL      0.025098
     94 H39         0.4940   -1.9040    4.5520 hc        1 MOL      0.023663
     95 H40         1.7530   -2.4500    5.4520 hc        1 MOL      0.023663
     96 H41         3.8760   -2.7570    4.2630 hc        1 MOL      0.034678
     97 H42         3.7780   -3.2100    2.5950 hc        1 MOL      0.034678
     98 H43         2.9870   -1.6230    3.1430 hc        1 MOL      0.034678
     99 H44         0.9870   -4.5060    5.8600 hc        1 MOL     -0.023523
    100 H45        -0.3310   -3.4370    6.1850 hc        1 MOL     -0.023523
    101 H46        -0.2900   -4.4350    4.6770 hc        1 MOL     -0.023523
    102 N10         2.0090   -2.1470    0.1110 n         1 MOL     -0.071127
    103 C32         2.8210   -2.1980   -1.1310 c3        1 MOL      0.116430
    104 C33         4.1580   -1.4870   -0.9520 c         1 MOL      0.350320
    105 O16         4.3480   -0.8960    0.1320 o         1 MOL     -0.356358
    106 C34         1.9740   -1.5330   -2.2760 c3        1 MOL     -0.239090
    107 C35         0.6380   -2.2140   -2.5190 c         1 MOL      0.671407
    108 O17        -0.4580   -1.8510   -1.9090 o         1 MOL     -0.647801
    109 O18         0.6630   -3.0490   -3.4290 o         1 MOL     -0.647801
    110 H47         1.7380   -1.2360    0.4430 hn        1 MOL      0.047490
    111 H48         2.9910   -3.2100   -1.4820 h1        1 MOL      0.047307
    112 H49         2.5470   -1.5270   -3.1980 hc        1 MOL      0.067021
    113 H50         1.9210   -0.4750   -2.0440 hc        1 MOL      0.067021
    114 N11         5.1820   -1.5910   -1.8070 n         1 MOL     -0.437684
    115 C36         6.5770   -1.2830   -1.4610 c3        1 MOL      0.004156
    116 C37         6.8970    0.2650   -1.1960 c         1 MOL      0.424502
    117 O19         7.5010    0.5620   -0.1530 o         1 MOL     -0.505957
    118 C38         7.4750   -1.9560   -2.4970 c3        1 MOL     -0.038869
    119 C39         8.9330   -1.5630   -2.2610 ca        1 MOL     -0.014265
    120 C40         9.5750   -0.4720   -2.9820 ca        1 MOL     -0.125712
    121 C41         9.5930   -2.1020   -1.1640 ca        1 MOL     -0.125712
    122 C42        10.8710   -0.0100   -2.6240 ca        1 MOL     -0.141926
    123 C43        10.8660   -1.6680   -0.8020 ca        1 MOL     -0.141926
    124 C44        11.4670   -0.6290   -1.5340 ca        1 MOL     -0.066959
    125 H51         4.9620   -1.9600   -2.7270 hn        1 MOL      0.296167
    126 H52         6.8230   -1.8930   -0.5940 h1        1 MOL      0.137948
    127 H53         7.2050   -1.7270   -3.5310 hc        1 MOL      0.040883
    128 H54         7.3410   -3.0380   -2.4550 hc        1 MOL      0.040883
    129 H55         9.0110   -0.0220   -3.7810 ha        1 MOL      0.108576
    130 H56         9.2080   -2.8480   -0.4840 ha        1 MOL      0.108576
    131 H57        11.3500    0.8790   -3.0260 ha        1 MOL      0.125498
    132 H58        11.3100   -2.1160    0.0690 ha        1 MOL      0.125498
    133 H59        12.4100   -0.2400   -1.1910 ha        1 MOL      0.083007
    134 N12         6.3150    1.2540   -1.8990 n         1 MOL     -0.044383
    135 C45         6.3270    2.6270   -1.4550 c3        1 MOL      0.024647
    136 C46         5.5870    2.8090   -0.0950 c         1 MOL      0.305005
    137 O20         5.8940    3.8880    0.3900 o         1 MOL     -0.555105
    138 C47         5.6450    3.4790   -2.5190 c3        1 MOL     -0.126762
    139 C48         4.9270    2.4530   -3.3610 c3        1 MOL      0.064169
    140 C49         5.6900    1.2170   -3.1920 c3        1 MOL     -0.025689
    141 H60         7.3900    2.8520   -1.3870 h1        1 MOL      0.066511
    142 H61         4.9450    4.2710   -2.2490 hc        1 MOL      0.057628
    143 H62         6.4450    3.9490   -3.0860 hc        1 MOL      0.057628
    144 H63         3.9370    2.2040   -2.9800 hc        1 MOL      0.013003
    145 H64         4.8480    2.7900   -4.3870 hc        1 MOL      0.013003
    146 H65         5.0420    0.3550   -3.3630 h1        1 MOL      0.000315
    147 H66         6.4440    1.2950   -3.9790 h1        1 MOL      0.000315
    148 N13         4.8750    1.9250    0.4820 n         1 MOL     -0.035588
    149 C50         4.1820    2.1840    1.7650 c3        1 MOL     -0.020268
    150 C51         4.9300    1.4020    2.9060 c         1 MOL      0.388542
    151 O21         5.1200    1.9650    4.0130 o         1 MOL     -0.543349
    152 C52         2.8140    1.5820    1.6690 c3        1 MOL      0.027810
    153 C53         2.0520    2.0590    0.3540 c3        1 MOL     -0.034224
    154 C54         0.8370    1.2630   -0.0840 c         1 MOL      0.778478
    155 O22         0.2440    1.4680   -1.1740 o         1 MOL     -0.796610
    156 O23         0.3910    0.3730    0.6540 o         1 MOL     -0.796610
    157 H67         4.9260    0.9880    0.0990 hn        1 MOL      0.121754
    158 H68         4.1640    3.2580    1.9550 h1        1 MOL      0.102930
    159 H69         2.2680    2.0210    2.5120 hc        1 MOL      0.009084
    160 H70         2.8330    0.4920    1.7080 hc        1 MOL      0.009084
    161 H71         2.6790    2.0930   -0.5240 hc        1 MOL      0.010375
    162 H72         1.7110    3.0670    0.6220 hc        1 MOL      0.010375
    163 N14         5.4590    0.2320    2.5570 n         1 MOL     -0.075589
    164 C55         6.4650   -0.4550    3.4260 c3        1 MOL     -0.316364
    165 H73         5.9560   -0.9270    4.2670 h1        1 MOL      0.113301
    166 H74         6.9880   -1.2160    2.8460 h1        1 MOL      0.113301
    167 H75         7.1830    0.2750    3.8000 h1        1 MOL      0.113301
    168 H76         5.2540   -0.2800    1.7150 hn        1 MOL      0.102169
    169 Ca1        -1.7820   -0.1760   -0.5620 Ca        1 MOL      1.821243
@<TRIPOS>BOND
     1    1    2 1   
     2    1    4 1   
     3    1    5 1   
     4    1    6 1   
     5    2    3 2   
     6    2    7 1   
     7    7    8 1   
     8    7   15 1   
     9    8    9 1   
    10    8   11 1   
    11    8   16 1   
    12    9   10 2   
    13    9   19 1   
    14   11   12 1   
    15   11   17 1   
    16   11   18 1   
    17   12   13 1   
    18   12   14 1   
    19   19   20 1   
    20   19   24 1   
    21   20   21 1   
    22   20   23 1   
    23   20   25 1   
    24   21   22 2   
    25   21   29 1   
    26   23   26 1   
    27   23   27 1   
    28   23   28 1   
    29   29   30 1   
    30   29   37 1   
    31   30   31 1   
    32   30   33 1   
    33   30   38 1   
    34   31   32 2   
    35   31   41 1   
    36   33   34 1   
    37   33   39 1   
    38   33   40 1   
    39   34   35 1   
    40   34   36 1   
    41   41   42 1   
    42   41   45 1   
    43   42   43 1   
    44   42   46 1   
    45   42   47 1   
    46   43   44 2   
    47   43   48 1   
    48   48   49 1   
    49   48   56 1   
    50   49   50 1   
    51   49   52 1   
    52   49   57 1   
    53   50   51 2   
    54   50   62 1   
    55   52   53 1   
    56   52   58 1   
    57   52   59 1   
    58   53   54 1   
    59   53   55 2   
    60   54   60 1   
    61   54   61 1   
    62   62   63 1   
    63   62   66 1   
    64   63   64 1   
    65   63   67 1   
    66   63   68 1   
    67   64   65 2   
    68   64   69 1   
    69   69   70 1   
    70   69   76 1   
    71   70   71 1   
    72   70   73 1   
    73   70   77 1   
    74   71   72 2   
    75   71   83 1   
    76   73   74 1   
    77   73   75 1   
    78   73   78 1   
    79   74   80 1   
    80   74   81 1   
    81   74   82 1   
    82   75   79 1   
    83   83   84 1   
    84   83   91 1   
    85   84   85 1   
    86   84   87 1   
    87   84   92 1   
    88   85   86 2   
    89   85  102 1   
    90   87   88 1   
    91   87   89 1   
    92   87   93 1   
    93   88   90 1   
    94   88   94 1   
    95   88   95 1   
    96   89   96 1   
    97   89   97 1   
    98   89   98 1   
    99   90   99 1   
   100   90  100 1   
   101   90  101 1   
   102  102  103 1   
   103  102  110 1   
   104  103  104 1   
   105  103  106 1   
   106  103  111 1   
   107  104  105 2   
   108  104  114 1   
   109  106  107 1   
   110  106  112 1   
   111  106  113 1   
   112  107  108 1   
   113  107  109 1   
   114  114  115 1   
   115  114  125 1   
   116  115  116 1   
   117  115  118 1   
   118  115  126 1   
   119  116  117 2   
   120  116  134 1   
   121  118  119 1   
   122  118  127 1   
   123  118  128 1   
   124  119  120 ar  
   125  119  121 ar  
   126  120  122 ar  
   127  120  129 1   
   128  121  123 ar  
   129  121  130 1   
   130  122  124 ar  
   131  122  131 1   
   132  123  124 ar  
   133  123  132 1   
   134  124  133 1   
   135  134  135 1   
   136  134  140 1   
   137  135  136 1   
   138  135  138 1   
   139  135  141 1   
   140  136  137 2   
   141  136  148 1   
   142  138  139 1   
   143  138  142 1   
   144  138  143 1   
   145  139  140 1   
   146  139  144 1   
   147  139  145 1   
   148  140  146 1   
   149  140  147 1   
   150  148  149 1   
   151  148  157 1   
   152  149  150 1   
   153  149  152 1   
   154  149  158 1   
   155  150  151 2   
   156  150  163 1   
   157  152  153 1   
   158  152  159 1   
   159  152  160 1   
   160  153  154 1   
   161  153  161 1   
   162  153  162 1   
   163  154  155 1   
   164  154  156 1   
   165  163  164 1   
   166  163  168 1   
   167  164  165 1   
   168  164  166 1   
   169  164  167 1   
@<TRIPOS>SUBSTRUCTURE
     1 MOL         1 TEMP              0 ****  ****    0 ROOT
