@<TRIPOS>MOLECULE
MOL
  189   185     1     0     0
SMALL
resp


@<TRIPOS>ATOM
      1 C1          0.7110    1.8100    5.6040 c3        1 MOL     -0.385188
      2 C2         -0.0070    1.8960    4.2550 c         1 MOL      0.740433
      3 O1          0.5190    2.5090    3.3290 o         1 MOL     -0.646927
      4 H1          1.3230    0.9090    5.6320 hc        1 MOL      0.097775
      5 H2          1.3470    2.6850    5.7340 hc        1 MOL      0.097775
      6 H3         -0.0260    1.7730    6.4060 hc        1 MOL      0.097775
      7 N1         -1.2460    1.4380    4.1520 n         1 MOL     -0.571107
      8 C3         -1.9240    1.3900    2.8270 c3        1 MOL      0.222294
      9 C4         -2.2490    2.8330    2.3300 c         1 MOL      0.420946
     10 O2         -3.1790    3.5230    2.8190 o         1 MOL     -0.540274
     11 C5         -3.1630    0.4470    2.9870 c3        1 MOL     -0.186341
     12 C6         -3.9630    0.2630    1.6690 c         1 MOL      0.687494
     13 O3         -3.3800    0.5870    0.6190 o         1 MOL     -0.654345
     14 O4         -5.1440   -0.0700    1.7930 o         1 MOL     -0.654345
     15 H4         -1.6600    1.0880    5.0040 hn        1 MOL      0.318846
     16 H5         -1.2970    0.9140    2.0730 h1        1 MOL     -0.030826
     17 H6         -3.7890    0.7750    3.8140 hc        1 MOL      0.045747
     18 H7         -2.6750   -0.4870    3.2690 hc        1 MOL      0.045747
     19 N2         -1.5190    3.3840    1.3020 n         1 MOL     -0.041880
     20 C7         -1.5910    4.7390    0.9350 c3        1 MOL     -0.393940
     21 C8         -2.6040    5.0900   -0.1280 c         1 MOL      0.611775
     22 O5         -3.0040    6.2410   -0.1910 o         1 MOL     -0.611088
     23 C9         -0.1820    5.1730    0.5040 c3        1 MOL      0.099836
     24 C10         0.1650    6.6290    0.2290 c3        1 MOL     -0.108343
     25 C11         1.7000    6.7380    0.2100 c3        1 MOL     -0.042013
     26 C12         2.3060    6.5550    1.6420 c3        1 MOL      0.134862
     27 N3          3.6870    6.0990    1.5430 n4        1 MOL     -0.475000
     28 H8         -0.8870    2.7420    0.8510 hn        1 MOL      0.064727
     29 H9         -1.9070    5.2010    1.8710 h1        1 MOL      0.167339
     30 H10         0.1090    4.5510   -0.3410 hc        1 MOL      0.043408
     31 H11         0.4740    4.7090    1.2410 hc        1 MOL      0.043408
     32 H12        -0.2040    7.1200    1.1240 hc        1 MOL      0.065438
     33 H13        -0.3160    6.8680   -0.7200 hc        1 MOL      0.065438
     34 H14         1.9840    7.7730   -0.0120 hc        1 MOL      0.017041
     35 H15         2.1260    5.9860   -0.4460 hc        1 MOL      0.017041
     36 H16         1.7250    5.7850    2.1490 hx        1 MOL      0.071512
     37 H17         2.2380    7.4680    2.2260 hx        1 MOL      0.071512
     38 H18         4.3720    6.7200    1.1260 hn        1 MOL      0.346403
     39 H19         4.0810    5.9140    2.4570 hn        1 MOL      0.346403
     40 H20         3.7550    5.2140    1.0690 hn        1 MOL      0.346403
     41 N4         -3.0730    4.1870   -0.9030 n         1 MOL     -0.344510
     42 C13        -4.1660    4.3620   -1.8850 c3        1 MOL      0.045001
     43 C14        -5.4300    3.7510   -1.4050 c         1 MOL      0.359696
     44 O6         -6.4250    3.9400   -2.1660 o         1 MOL     -0.524972
     45 C15        -3.8470    3.7720   -3.2550 c3        1 MOL     -0.277431
     46 C16        -3.0650    2.4690   -3.1790 c         1 MOL      0.753496
     47 O7         -2.4110    2.0440   -4.1510 o         1 MOL     -0.695483
     48 O8         -3.0760    1.7640   -2.1310 o         1 MOL     -0.695483
     49 H21        -2.5270    3.3440   -0.9950 hn        1 MOL      0.260809
     50 H22        -4.4230    5.4220   -1.9670 h1        1 MOL      0.111096
     51 H23        -3.2430    4.4900   -3.8040 hc        1 MOL      0.086192
     52 H24        -4.7670    3.7330   -3.8470 hc        1 MOL      0.086192
     53 N5         -5.5000    3.0700   -0.2780 n         1 MOL     -0.079266
     54 C17        -6.6700    2.4990    0.2200 c3        1 MOL     -0.277122
     55 C18        -7.3180    1.5190   -0.6820 c         1 MOL      0.568737
     56 O9         -8.5250    1.4620   -0.8090 o         1 MOL     -0.564214
     57 H25        -4.6460    2.9620    0.2510 hn        1 MOL      0.200792
     58 H26        -7.3500    3.3240    0.4500 h1        1 MOL      0.119887
     59 H27        -6.4640    1.9150    1.1170 h1        1 MOL      0.119887
     60 N6         -6.5270    0.6090   -1.3000 n         1 MOL     -0.254872
     61 C19        -7.0470   -0.5730   -2.0260 c3        1 MOL     -0.022484
     62 C20        -7.3080   -1.6880   -0.9850 c         1 MOL      0.418950
     63 O10        -7.8120   -2.7490   -1.3710 o         1 MOL     -0.532493
     64 C21        -6.1440   -1.1010   -3.2210 c3        1 MOL     -0.199892
     65 C22        -4.6910   -1.2110   -2.7790 c         1 MOL      0.706393
     66 O11        -4.4740   -1.5300   -1.5610 o         1 MOL     -0.655038
     67 O12        -3.8060   -0.9580   -3.5230 o         1 MOL     -0.655038
     68 H28        -5.5660    0.6510   -0.9780 hn        1 MOL      0.164592
     69 H29        -7.9860   -0.2170   -2.4390 h1        1 MOL      0.125107
     70 H30        -6.2400   -0.3700   -4.0250 hc        1 MOL      0.068693
     71 H31        -6.5680   -2.0120   -3.6420 hc        1 MOL      0.068693
     72 N7         -6.9610   -1.5390    0.2700 n         1 MOL     -0.217327
     73 C23        -7.0320   -2.6480    1.2300 c3        1 MOL     -0.076596
     74 C24        -5.8880   -3.6820    1.1980 c         1 MOL      0.433626
     75 O13        -6.1540   -4.8450    1.6050 o         1 MOL     -0.575380
     76 H32        -6.3660   -0.7410    0.4630 hn        1 MOL      0.202718
     77 H33        -8.0020   -3.1430    1.1140 h1        1 MOL      0.091500
     78 H34        -7.1220   -2.2930    2.2580 h1        1 MOL      0.091500
     79 N8         -4.7410   -3.4730    0.6450 n         1 MOL     -0.008675
     80 C25        -3.6140   -4.3800    0.5540 c3        1 MOL     -0.484681
     81 C26        -2.2680   -3.5870    0.5440 c         1 MOL      0.873566
     82 O14        -2.1420   -2.4820    0.0050 o         1 MOL     -0.721374
     83 C27        -3.6550   -5.2250   -0.7350 c3        1 MOL      0.477918
     84 C28        -4.8070   -6.1910   -0.7980 c3        1 MOL     -0.421759
     85 O15        -3.6160   -4.3570   -1.9270 oh        1 MOL     -0.649438
     86 H35        -4.5650   -2.6070    0.1650 hn        1 MOL      0.118415
     87 H36        -3.6120   -4.9520    1.4740 h1        1 MOL      0.155619
     88 H37        -2.7680   -5.8550   -0.7670 h1        1 MOL      0.010843
     89 H38        -4.2590   -3.6390   -1.8460 ho        1 MOL      0.411050
     90 H39        -4.9010   -6.7940    0.1020 hc        1 MOL      0.115308
     91 H40        -5.7060   -5.5690   -0.8750 hc        1 MOL      0.115308
     92 H41        -4.7010   -6.8880   -1.6340 hc        1 MOL      0.115308
     93 N9         -1.3010   -3.9880    1.3690 n         1 MOL     -0.653417
     94 C29        -0.0810   -3.2440    1.6210 c3        1 MOL      0.060298
     95 C30         1.0550   -3.9020    0.7960 c         1 MOL      0.509838
     96 O16         1.1880   -5.1350    0.7180 o         1 MOL     -0.543121
     97 C31         0.2440   -3.1010    3.0950 c3        1 MOL      0.286072
     98 C32        -0.8600   -2.5310    3.9880 c3        1 MOL      0.116068
     99 C33         1.5660   -2.2470    3.1530 c3        1 MOL     -0.313912
    100 C34        -0.6850   -2.8360    5.5290 c3        1 MOL     -0.199756
    101 H42        -1.3890   -4.9130    1.7730 hn        1 MOL      0.303147
    102 H43        -0.3330   -2.2530    1.2420 h1        1 MOL      0.108326
    103 H44         0.5100   -4.0930    3.4600 hc        1 MOL     -0.038606
    104 H45        -1.8350   -2.9000    3.6720 hc        1 MOL     -0.023892
    105 H46        -0.8610   -1.4340    3.9570 hc        1 MOL     -0.023892
    106 H47         2.3850   -2.5170    2.4820 hc        1 MOL      0.041633
    107 H48         1.3220   -1.1880    3.0270 hc        1 MOL      0.041633
    108 H49         2.1460   -2.3880    4.0630 hc        1 MOL      0.041633
    109 H50        -1.5970   -2.4620    6.0000 hc        1 MOL      0.040687
    110 H51        -0.5440   -3.8690    5.8320 hc        1 MOL      0.040687
    111 H52         0.1600   -2.2640    5.8940 hc        1 MOL      0.040687
    112 N10         1.8340   -3.0270    0.1060 n         1 MOL     -0.083825
    113 C35         3.0260   -3.3810   -0.6950 c3        1 MOL     -0.212872
    114 C36         4.3730   -3.0890   -0.0180 c         1 MOL      0.569798
    115 O17         4.4510   -2.4140    1.0010 o         1 MOL     -0.454209
    116 C37         2.9600   -2.5470   -2.0720 c3        1 MOL      0.331826
    117 C38         1.8530   -2.9010   -2.9700 c3        1 MOL     -0.245319
    118 O18         2.9620   -1.1400   -1.8640 oh        1 MOL     -0.627488
    119 H53         1.6550   -2.0510    0.2930 hn        1 MOL     -0.004526
    120 H54         2.9180   -4.4500   -0.9150 h1        1 MOL      0.098148
    121 H55         3.9110   -2.8040   -2.5440 h1        1 MOL      0.001923
    122 H56         2.0620   -1.0020   -1.5820 ho        1 MOL      0.442199
    123 H57         1.5280   -1.9660   -3.4290 hc        1 MOL      0.069888
    124 H58         2.2540   -3.5160   -3.7780 hc        1 MOL      0.069888
    125 H59         1.0760   -3.5300   -2.5440 hc        1 MOL      0.069888
    126 N11         5.5170   -3.4640   -0.6260 n         1 MOL     -0.445071
    127 C39         6.8370   -3.2460   -0.0810 c3        1 MOL      0.002084
    128 C40         7.1970   -1.7580    0.1040 c         1 MOL      0.290678
    129 O19         8.0230   -1.3950    0.9500 o         1 MOL     -0.493333
    130 C41         7.8830   -3.8690   -1.0550 c3        1 MOL      0.272553
    131 C42         7.9570   -5.3770   -0.8530 c3        1 MOL     -0.449399
    132 O20         7.5860   -3.6280   -2.4420 oh        1 MOL     -0.678171
    133 H60         5.5390   -3.8740   -1.5470 hn        1 MOL      0.306633
    134 H61         7.0000   -3.6770    0.9130 h1        1 MOL      0.135085
    135 H62         8.8260   -3.4020   -0.7800 h1        1 MOL      0.052985
    136 H63         8.3060   -3.9150   -2.9980 ho        1 MOL      0.439858
    137 H64         7.7090   -5.5100    0.1970 hc        1 MOL      0.130530
    138 H65         7.2090   -5.8110   -1.5160 hc        1 MOL      0.130530
    139 H66         8.9930   -5.6500   -1.0570 hc        1 MOL      0.130530
    140 N12         6.7030   -0.8930   -0.7820 n         1 MOL     -0.206988
    141 C43         6.9670    0.5590   -0.8840 c3        1 MOL     -0.164666
    142 C44         6.1400    1.2450    0.2430 c         1 MOL      0.543405
    143 O21         6.6040    2.1400    0.9020 o         1 MOL     -0.546846
    144 C45         6.7280    1.0770   -2.3280 c3        1 MOL     -0.091421
    145 C46         7.5490    2.3270   -2.7180 c3        1 MOL     -0.076679
    146 C47         9.0270    1.9100   -2.8660 c3        1 MOL      0.038205
    147 C48         9.9690    3.0520   -3.4650 c3        1 MOL      0.073871
    148 N13        11.2160    2.4510   -4.0460 n4        1 MOL     -0.340659
    149 H67         6.2380   -1.3560   -1.5430 hn        1 MOL      0.251796
    150 H68         7.9800    0.8110   -0.5880 h1        1 MOL      0.141310
    151 H69         5.7210    1.4620   -2.5430 hc        1 MOL      0.076493
    152 H70         6.7460    0.2270   -3.0090 hc        1 MOL      0.076493
    153 H71         7.6310    3.1300   -1.9900 hc        1 MOL      0.047203
    154 H72         7.2240    2.7430   -3.6730 hc        1 MOL      0.047203
    155 H73         9.0140    1.0680   -3.5650 hc        1 MOL      0.016386
    156 H74         9.4140    1.5770   -1.9020 hc        1 MOL      0.016386
    157 H75        10.4040    3.6580   -2.6780 hx        1 MOL      0.071328
    158 H76         9.4200    3.7040   -4.1440 hx        1 MOL      0.071328
    159 H77        11.8970    2.0420   -3.4170 hn        1 MOL      0.277282
    160 H78        10.9440    1.8150   -4.7830 hn        1 MOL      0.277282
    161 H79        11.7960    3.1360   -4.5170 hn        1 MOL      0.277282
    162 N14         4.8940    0.7710    0.4440 n         1 MOL     -0.223408
    163 C49         4.0260    1.2590    1.4670 c3        1 MOL     -0.363352
    164 C50         4.5320    0.7670    2.8610 c         1 MOL      0.590921
    165 O22         4.3680    1.4880    3.7780 o         1 MOL     -0.561107
    166 C51         2.6110    0.7500    1.1540 c3        1 MOL      0.065038
    167 C52         1.9480    1.4560   -0.0090 c3        1 MOL     -0.021001
    168 C53         0.6630    0.7950   -0.4170 c         1 MOL      0.778502
    169 O23         0.6930   -0.3780   -0.7860 o         1 MOL     -0.723502
    170 O24        -0.3700    1.4660   -0.6030 o         1 MOL     -0.723502
    171 H80         4.5820   -0.0450   -0.0600 hn        1 MOL      0.152087
    172 H81         4.0910    2.3390    1.3760 h1        1 MOL      0.132636
    173 H82         2.0560    1.0710    2.0370 hc        1 MOL      0.068314
    174 H83         2.6110   -0.3340    1.0980 hc        1 MOL      0.068314
    175 H84         2.5610    1.4580   -0.9120 hc        1 MOL     -0.014233
    176 H85         1.6920    2.4770    0.2660 hc        1 MOL     -0.014233
    177 N15         5.2610   -0.3190    2.9740 n         1 MOL     -0.154594
    178 C54         6.0520   -0.5790    4.1740 c3        1 MOL     -0.222807
    179 H86         6.5840   -1.5250    4.0600 h1        1 MOL      0.094325
    180 H87         6.7720    0.2260    4.3180 h1        1 MOL      0.094325
    181 H88         5.3920   -0.6370    5.0400 h1        1 MOL      0.094325
    182 H89         5.3990   -0.9200    2.1730 hn        1 MOL      0.221438
    183 Ca1        -2.0270   -0.3730   -1.4520 Ca        1 MOL      1.736625
    184 O25        -0.5310    0.3750   -3.4920 oh        1 MOL     -0.865960
    185 H90         0.2120    0.4950   -4.0810 ho        1 MOL      0.401690
    186 H91        -1.2440    0.8920   -3.8810 ho        1 MOL      0.401690
    187 O26        -1.3460   -2.6450   -2.8250 oh        1 MOL     -0.865960
    188 H92        -1.9350   -3.3900   -2.7080 ho        1 MOL      0.401690
    189 H93        -1.0240   -2.7360   -3.7230 ho        1 MOL      0.401690
@<TRIPOS>BOND
     1    1    2 1   
     2    1    4 1   
     3    1    5 1   
     4    1    6 1   
     5    2    3 2   
     6    2    7 1   
     7    7    8 1   
     8    7   15 1   
     9    8    9 1   
    10    8   11 1   
    11    8   16 1   
    12    9   10 2   
    13    9   19 1   
    14   11   12 1   
    15   11   17 1   
    16   11   18 1   
    17   12   13 1   
    18   12   14 1   
    19   19   20 1   
    20   19   28 1   
    21   20   21 1   
    22   20   23 1   
    23   20   29 1   
    24   21   22 2   
    25   21   41 1   
    26   23   24 1   
    27   23   30 1   
    28   23   31 1   
    29   24   25 1   
    30   24   32 1   
    31   24   33 1   
    32   25   26 1   
    33   25   34 1   
    34   25   35 1   
    35   26   27 1   
    36   26   36 1   
    37   26   37 1   
    38   27   38 1   
    39   27   39 1   
    40   27   40 1   
    41   41   42 1   
    42   41   49 1   
    43   42   43 1   
    44   42   45 1   
    45   42   50 1   
    46   43   44 2   
    47   43   53 1   
    48   45   46 1   
    49   45   51 1   
    50   45   52 1   
    51   46   47 1   
    52   46   48 1   
    53   53   54 1   
    54   53   57 1   
    55   54   55 1   
    56   54   58 1   
    57   54   59 1   
    58   55   56 2   
    59   55   60 1   
    60   60   61 1   
    61   60   68 1   
    62   61   62 1   
    63   61   64 1   
    64   61   69 1   
    65   62   63 2   
    66   62   72 1   
    67   64   65 1   
    68   64   70 1   
    69   64   71 1   
    70   65   66 1   
    71   65   67 1   
    72   72   73 1   
    73   72   76 1   
    74   73   74 1   
    75   73   77 1   
    76   73   78 1   
    77   74   75 2   
    78   74   79 1   
    79   79   80 1   
    80   79   86 1   
    81   80   81 1   
    82   80   83 1   
    83   80   87 1   
    84   81   82 2   
    85   81   93 1   
    86   83   84 1   
    87   83   85 1   
    88   83   88 1   
    89   84   90 1   
    90   84   91 1   
    91   84   92 1   
    92   85   89 1   
    93   93   94 1   
    94   93  101 1   
    95   94   95 1   
    96   94   97 1   
    97   94  102 1   
    98   95   96 2   
    99   95  112 1   
   100   97   98 1   
   101   97   99 1   
   102   97  103 1   
   103   98  100 1   
   104   98  104 1   
   105   98  105 1   
   106   99  106 1   
   107   99  107 1   
   108   99  108 1   
   109  100  109 1   
   110  100  110 1   
   111  100  111 1   
   112  112  113 1   
   113  112  119 1   
   114  113  114 1   
   115  113  116 1   
   116  113  120 1   
   117  114  115 2   
   118  114  126 1   
   119  116  117 1   
   120  116  118 1   
   121  116  121 1   
   122  117  123 1   
   123  117  124 1   
   124  117  125 1   
   125  118  122 1   
   126  126  127 1   
   127  126  133 1   
   128  127  128 1   
   129  127  130 1   
   130  127  134 1   
   131  128  129 2   
   132  128  140 1   
   133  130  131 1   
   134  130  132 1   
   135  130  135 1   
   136  131  137 1   
   137  131  138 1   
   138  131  139 1   
   139  132  136 1   
   140  140  141 1   
   141  140  149 1   
   142  141  142 1   
   143  141  144 1   
   144  141  150 1   
   145  142  143 2   
   146  142  162 1   
   147  144  145 1   
   148  144  151 1   
   149  144  152 1   
   150  145  146 1   
   151  145  153 1   
   152  145  154 1   
   153  146  147 1   
   154  146  155 1   
   155  146  156 1   
   156  147  148 1   
   157  147  157 1   
   158  147  158 1   
   159  148  159 1   
   160  148  160 1   
   161  148  161 1   
   162  162  163 1   
   163  162  171 1   
   164  163  164 1   
   165  163  166 1   
   166  163  172 1   
   167  164  165 2   
   168  164  177 1   
   169  166  167 1   
   170  166  173 1   
   171  166  174 1   
   172  167  168 1   
   173  167  175 1   
   174  167  176 1   
   175  168  169 1   
   176  168  170 1   
   177  177  178 1   
   178  177  182 1   
   179  178  179 1   
   180  178  180 1   
   181  178  181 1   
   182  184  185 1   
   183  184  186 1   
   184  187  188 1   
   185  187  189 1   
@<TRIPOS>SUBSTRUCTURE
     1 MOL         1 TEMP              0 ****  ****    0 ROOT
