@<TRIPOS>MOLECULE
MOL
  189   185     1     0     0
SMALL
resp


@<TRIPOS>ATOM
      1 C1         -0.3640    2.2940    5.7600 c3        1 MOL     -0.241533
      2 C2         -0.7240    1.9750    4.2850 c         1 MOL      0.628216
      3 O1          0.0700    2.3090    3.4060 o         1 MOL     -0.594083
      4 H1          0.6960    2.5330    5.8320 hc        1 MOL      0.065641
      5 H2         -0.9520    3.1460    6.1020 hc        1 MOL      0.065641
      6 H3         -0.5840    1.4270    6.3840 hc        1 MOL      0.065641
      7 N1         -1.9080    1.4840    3.9790 n         1 MOL     -0.591767
      8 C3         -2.4720    1.3230    2.6200 c3        1 MOL      0.332269
      9 C4         -2.9390    2.6860    2.1500 c         1 MOL      0.337834
     10 O2         -4.1460    2.9630    2.0690 o         1 MOL     -0.479438
     11 C5         -3.5670    0.2190    2.7640 c3        1 MOL     -0.304946
     12 C6         -4.0920   -0.2120    1.4190 c         1 MOL      0.754864
     13 O3         -3.6330    0.3590    0.3970 o         1 MOL     -0.608206
     14 O4         -5.0570   -0.9890    1.4360 o         1 MOL     -0.608206
     15 H4         -2.3710    0.9940    4.7330 hn        1 MOL      0.307839
     16 H5         -1.6460    0.9370    2.0200 h1        1 MOL     -0.034765
     17 H6         -4.4020    0.5280    3.3940 hc        1 MOL      0.073142
     18 H7         -3.0410   -0.6600    3.1510 hc        1 MOL      0.073142
     19 N2         -2.0010    3.4940    1.7500 n         1 MOL     -0.185602
     20 C7         -2.1310    4.8810    1.3200 c3        1 MOL     -0.028763
     21 C8         -2.9600    5.0680   -0.0070 c         1 MOL      0.433176
     22 O5         -3.2600    6.2030   -0.3970 o         1 MOL     -0.551626
     23 C9         -0.7670    5.5120    1.2190 c3        1 MOL     -0.043764
     24 C10        -0.8060    7.0160    1.4710 c3        1 MOL     -0.150203
     25 C11         0.4340    7.8270    1.0230 c3        1 MOL      0.003681
     26 C12         0.1960    9.2930    1.2560 c3        1 MOL      0.148950
     27 N3          1.3650   10.1500    0.9290 n4        1 MOL     -0.403445
     28 H8         -1.0470    3.1560    1.7820 hn        1 MOL      0.256853
     29 H9         -2.7360    5.3810    2.0810 h1        1 MOL      0.078584
     30 H10        -0.5220    5.4490    0.1590 hc        1 MOL      0.055939
     31 H11         0.0130    4.9590    1.7570 hc        1 MOL      0.055939
     32 H12        -1.1480    7.2720    2.4820 hc        1 MOL      0.065610
     33 H13        -1.5600    7.4110    0.7930 hc        1 MOL      0.065610
     34 H14         0.6270    7.7710   -0.0490 hc        1 MOL      0.022376
     35 H15         1.3790    7.5780    1.5110 hc        1 MOL      0.022376
     36 H16         0.0210    9.5110    2.3110 hx        1 MOL      0.049289
     37 H17        -0.7050    9.5460    0.7050 hx        1 MOL      0.049289
     38 H18         2.0570   10.1710    1.6680 hn        1 MOL      0.331982
     39 H19         1.7260    9.8890    0.0280 hn        1 MOL      0.331982
     40 H20         1.0290   11.0930    0.8420 hn        1 MOL      0.331982
     41 N4         -3.3440    3.9550   -0.6930 n         1 MOL     -0.099789
     42 C13        -4.2430    3.9590   -1.8520 c3        1 MOL      0.009668
     43 C14        -5.6010    3.1680   -1.5560 c         1 MOL      0.472792
     44 O6         -6.5560    3.2920   -2.3150 o         1 MOL     -0.523442
     45 C15        -3.4970    3.7310   -3.1660 c3        1 MOL     -0.227575
     46 C16        -2.6210    2.5050   -3.2250 c         1 MOL      0.824680
     47 O7         -1.9370    2.3130   -4.2480 o         1 MOL     -0.738619
     48 O8         -2.5750    1.7010   -2.3140 o         1 MOL     -0.738619
     49 H21        -3.0800    3.0420   -0.3510 hn        1 MOL      0.069377
     50 H22        -4.6680    4.9650   -1.8710 h1        1 MOL      0.066976
     51 H23        -2.8030    4.5500   -3.3810 hc        1 MOL      0.057795
     52 H24        -4.1700    3.6130   -4.0100 hc        1 MOL      0.057795
     53 N5         -5.6900    2.5560   -0.3960 n         1 MOL     -0.217352
     54 C17        -6.9120    1.7850   -0.0180 c3        1 MOL     -0.021567
     55 C18        -7.3870    0.6440   -0.9160 c         1 MOL      0.384018
     56 O9         -8.5550    0.5670   -1.3450 o         1 MOL     -0.547205
     57 H25        -4.9580    2.4920    0.2990 hn        1 MOL      0.072479
     58 H26        -7.7880    2.4250    0.1350 h1        1 MOL      0.074148
     59 H27        -6.7640    1.3200    0.9540 h1        1 MOL      0.074148
     60 N6         -6.4520   -0.2990   -1.1740 n         1 MOL     -0.011586
     61 C19        -6.7430   -1.4260   -2.0320 c3        1 MOL      0.004714
     62 C20        -6.7820   -2.7720   -1.2510 c         1 MOL      0.350964
     63 O10        -6.9530   -3.8730   -1.8690 o         1 MOL     -0.502605
     64 C21        -5.6880   -1.5790   -3.1290 c3        1 MOL     -0.234428
     65 C22        -4.2300   -1.7030   -2.6880 c         1 MOL      0.739527
     66 O11        -3.2590   -1.3490   -3.4420 o         1 MOL     -0.695875
     67 O12        -3.8940   -2.1060   -1.5020 o         1 MOL     -0.695875
     68 H28        -5.5710   -0.2770   -0.6740 hn        1 MOL     -0.020574
     69 H29        -7.7240   -1.3070   -2.5000 h1        1 MOL      0.125099
     70 H30        -5.7320   -0.6070   -3.6240 hc        1 MOL      0.075148
     71 H31        -5.8870   -2.4030   -3.8210 hc        1 MOL      0.075148
     72 N7         -6.7600   -2.6930    0.1060 n         1 MOL     -0.308477
     73 C23        -6.7070   -3.8780    0.9950 c3        1 MOL     -0.106420
     74 C24        -5.3070   -4.5630    1.1050 c         1 MOL      0.472103
     75 O13        -5.1480   -5.6520    1.6410 o         1 MOL     -0.595480
     76 H32        -6.4160   -1.8070    0.4250 hn        1 MOL      0.235508
     77 H33        -7.3040   -4.6550    0.5210 h1        1 MOL      0.102578
     78 H34        -7.0420   -3.6510    2.0110 h1        1 MOL      0.102578
     79 N8         -4.2690   -4.0120    0.5470 n         1 MOL     -0.055665
     80 C25        -2.8800   -4.5730    0.6230 c3        1 MOL     -0.189397
     81 C26        -1.7460   -3.5370    0.7910 c         1 MOL      0.650187
     82 O14        -1.8970   -2.3370    0.4770 o         1 MOL     -0.656831
     83 C27        -2.6050   -5.4160   -0.5790 c3        1 MOL      0.567765
     84 C28        -3.3300   -6.7170   -0.5930 c3        1 MOL     -0.561757
     85 O15        -3.0080   -4.7350   -1.7950 oh        1 MOL     -0.709900
     86 H35        -4.4070   -3.1650    0.0070 hn        1 MOL      0.054051
     87 H36        -2.8170   -5.2740    1.4590 h1        1 MOL      0.094926
     88 H37        -1.5330   -5.6170   -0.6520 h1        1 MOL     -0.038101
     89 H38        -3.4500   -3.9340   -1.5320 ho        1 MOL      0.474707
     90 H39        -2.9260   -7.3430    0.2010 hc        1 MOL      0.141055
     91 H40        -4.4090   -6.6340   -0.5100 hc        1 MOL      0.141055
     92 H41        -3.1200   -7.1160   -1.5900 hc        1 MOL      0.141055
     93 N9         -0.6140   -3.9830    1.2240 n         1 MOL     -0.629394
     94 C29         0.6290   -3.2050    1.5340 c3        1 MOL      0.087092
     95 C30         1.7750   -3.5610    0.5780 c         1 MOL      0.619971
     96 O16         2.1520   -4.7230    0.5130 o         1 MOL     -0.581109
     97 C31         0.8180   -3.4190    3.0510 c3        1 MOL     -0.005841
     98 C32        -0.1960   -2.5550    3.8010 c3        1 MOL      0.155977
     99 C33         2.1930   -2.8620    3.2850 c3        1 MOL     -0.176574
    100 C34         0.1050   -2.5100    5.3280 c3        1 MOL     -0.372074
    101 H42        -0.4680   -4.9730    1.2710 hn        1 MOL      0.303934
    102 H43         0.4170   -2.1510    1.3700 h1        1 MOL      0.103900
    103 H44         0.8110   -4.4780    3.3180 hc        1 MOL      0.050031
    104 H45        -1.1690   -3.0230    3.6300 hc        1 MOL      0.000269
    105 H46        -0.2880   -1.5420    3.4110 hc        1 MOL      0.000269
    106 H47         2.5180   -3.2980    4.2360 hc        1 MOL      0.023819
    107 H48         2.9890   -3.1930    2.6070 hc        1 MOL      0.023819
    108 H49         2.1590   -1.7830    3.3540 hc        1 MOL      0.023819
    109 H50        -0.8540   -2.3200    5.8110 hc        1 MOL      0.089643
    110 H51         0.4550   -3.4610    5.7260 hc        1 MOL      0.089643
    111 H52         0.9350   -1.8400    5.5780 hc        1 MOL      0.089643
    112 N10         2.2440   -2.7290   -0.3410 n         1 MOL     -0.261604
    113 C35         3.4650   -2.9480   -1.1360 c3        1 MOL     -0.189275
    114 C36         4.7450   -2.9430   -0.2610 c         1 MOL      0.510417
    115 O17         4.6190   -2.7160    0.8950 o         1 MOL     -0.346933
    116 C37         3.5740   -1.8060   -2.1430 c3        1 MOL      0.178544
    117 C38         2.4560   -1.8320   -3.2280 c3        1 MOL     -0.382588
    118 O18         3.5870   -0.5130   -1.4640 oh        1 MOL     -0.546993
    119 H53         1.7600   -1.8580   -0.4540 hn        1 MOL      0.198738
    120 H54         3.4430   -3.8510   -1.7490 h1        1 MOL      0.114819
    121 H55         4.5250   -1.8690   -2.6700 h1        1 MOL      0.040536
    122 H56         2.6700   -0.5000   -1.1550 ho        1 MOL      0.393979
    123 H57         2.3360   -0.9500   -3.8500 hc        1 MOL      0.122323
    124 H58         2.4760   -2.7240   -3.8590 hc        1 MOL      0.122323
    125 H59         1.4900   -1.9130   -2.7320 hc        1 MOL      0.122323
    126 N11         5.8500   -3.0980   -0.9520 n         1 MOL     -0.459039
    127 C39         7.2410   -2.8260   -0.3940 c3        1 MOL      0.000540
    128 C40         7.3980   -1.3850    0.1160 c         1 MOL      0.176764
    129 O19         7.9670   -1.1910    1.1980 o         1 MOL     -0.475514
    130 C41         8.2970   -2.9670   -1.5520 c3        1 MOL      0.251945
    131 C42         8.3970   -4.4500   -1.7510 c3        1 MOL     -0.327807
    132 O20         7.8300   -2.2980   -2.6600 oh        1 MOL     -0.618760
    133 H60         5.7220   -3.1460   -1.9560 hn        1 MOL      0.297565
    134 H61         7.5070   -3.5210    0.3890 h1        1 MOL      0.139271
    135 H62         9.2770   -2.5910   -1.2750 h1        1 MOL      0.057560
    136 H63         8.3320   -2.6230   -3.4140 ho        1 MOL      0.414800
    137 H64         7.4840   -4.9470   -2.0740 hc        1 MOL      0.093832
    138 H65         9.0720   -4.5760   -2.6000 hc        1 MOL      0.093832
    139 H66         8.9450   -4.9760   -0.9680 hc        1 MOL      0.093832
    140 N12         6.9510   -0.3470   -0.6030 n         1 MOL      0.099409
    141 C43         7.0140    1.0850   -0.2900 c3        1 MOL     -0.098152
    142 C44         6.0510    1.4540    0.8020 c         1 MOL      0.399806
    143 O21         6.4840    2.3300    1.5570 o         1 MOL     -0.528789
    144 C45         6.8320    1.8480   -1.5660 c3        1 MOL     -0.095696
    145 C46         8.0470    1.6900   -2.6030 c3        1 MOL     -0.117719
    146 C47         7.5720    2.1990   -3.9570 c3        1 MOL      0.082939
    147 C48         7.4890    3.7310   -4.0600 c3        1 MOL     -0.016872
    148 N13         7.2100    4.0790   -5.4800 n4        1 MOL     -0.338169
    149 H67         6.7050   -0.6860   -1.5220 hn        1 MOL      0.177008
    150 H68         8.0300    1.2820    0.0450 h1        1 MOL      0.113042
    151 H69         6.5760    2.9070   -1.4430 hc        1 MOL      0.051120
    152 H70         5.9670    1.5150   -2.1320 hc        1 MOL      0.051120
    153 H71         8.2660    0.6260   -2.5450 hc        1 MOL      0.042205
    154 H72         8.9520    2.2420   -2.3530 hc        1 MOL      0.042205
    155 H73         6.6160    1.8830   -4.3610 hc        1 MOL      0.008733
    156 H74         8.3320    1.8600   -4.6580 hc        1 MOL      0.008733
    157 H75         8.3490    4.2250   -3.6030 hx        1 MOL      0.097407
    158 H76         6.5910    3.8700   -3.4580 hx        1 MOL      0.097407
    159 H77         6.2270    4.1200   -5.7130 hn        1 MOL      0.308336
    160 H78         7.5370    5.0320   -5.4680 hn        1 MOL      0.308336
    161 H79         7.7100    3.5110   -6.1480 hn        1 MOL      0.308336
    162 N14         4.9370    0.7290    1.0500 n         1 MOL      0.060669
    163 C49         4.0260    0.8810    2.1850 c3        1 MOL     -0.340224
    164 C50         4.5910    0.0950    3.3840 c         1 MOL      0.605198
    165 O22         4.5330    0.6010    4.5230 o         1 MOL     -0.571537
    166 C51         2.5580    0.5990    1.8390 c3        1 MOL      0.207373
    167 C52         1.9930    1.3670    0.6560 c3        1 MOL     -0.201335
    168 C53         0.7730    0.7680    0.0040 c         1 MOL      0.780957
    169 O23         0.7570   -0.3430   -0.5330 o         1 MOL     -0.751808
    170 O24        -0.2680    1.4800   -0.1340 o         1 MOL     -0.751808
    171 H80         4.7710   -0.0050    0.3910 hn        1 MOL     -0.077417
    172 H81         4.0640    1.9490    2.4400 h1        1 MOL      0.117138
    173 H82         1.9770    0.7640    2.7430 hc        1 MOL      0.029316
    174 H83         2.5640   -0.4330    1.4660 hc        1 MOL      0.029316
    175 H84         2.7080    1.4340   -0.1640 hc        1 MOL      0.026518
    176 H85         1.7770    2.3810    1.0020 hc        1 MOL      0.026518
    177 N15         5.2520   -1.0680    3.2110 n         1 MOL     -0.174953
    178 C54         6.0380   -1.6920    4.2330 c3        1 MOL     -0.331500
    179 H86         7.0940   -1.4880    4.0540 h1        1 MOL      0.119031
    180 H87         5.7520   -1.2930    5.2060 h1        1 MOL      0.119031
    181 H88         5.8670   -2.7680    4.2160 h1        1 MOL      0.119031
    182 H89         5.3610   -1.4280    2.2730 hn        1 MOL      0.223715
    183 Ca1        -1.7810   -0.4440   -1.3680 Ca        1 MOL      1.769175
    184 O25        -0.7670   -2.8460   -2.2930 oh        1 MOL     -0.908049
    185 H90        -0.2580   -3.0750   -3.0620 ho        1 MOL      0.418569
    186 H91        -1.5340   -3.4120   -2.3400 ho        1 MOL      0.418569
    187 O26        -0.7290   -0.0080   -3.8160 oh        1 MOL     -0.908049
    188 H92        -1.2410    0.7950   -3.7180 ho        1 MOL      0.418569
    189 H93        -0.6630   -0.1470   -4.7610 ho        1 MOL      0.418569
@<TRIPOS>BOND
     1    1    2 1   
     2    1    4 1   
     3    1    5 1   
     4    1    6 1   
     5    2    3 2   
     6    2    7 1   
     7    7    8 1   
     8    7   15 1   
     9    8    9 1   
    10    8   11 1   
    11    8   16 1   
    12    9   10 2   
    13    9   19 1   
    14   11   12 1   
    15   11   17 1   
    16   11   18 1   
    17   12   13 1   
    18   12   14 1   
    19   19   20 1   
    20   19   28 1   
    21   20   21 1   
    22   20   23 1   
    23   20   29 1   
    24   21   22 2   
    25   21   41 1   
    26   23   24 1   
    27   23   30 1   
    28   23   31 1   
    29   24   25 1   
    30   24   32 1   
    31   24   33 1   
    32   25   26 1   
    33   25   34 1   
    34   25   35 1   
    35   26   27 1   
    36   26   36 1   
    37   26   37 1   
    38   27   38 1   
    39   27   39 1   
    40   27   40 1   
    41   41   42 1   
    42   41   49 1   
    43   42   43 1   
    44   42   45 1   
    45   42   50 1   
    46   43   44 2   
    47   43   53 1   
    48   45   46 1   
    49   45   51 1   
    50   45   52 1   
    51   46   47 1   
    52   46   48 1   
    53   53   54 1   
    54   53   57 1   
    55   54   55 1   
    56   54   58 1   
    57   54   59 1   
    58   55   56 2   
    59   55   60 1   
    60   60   61 1   
    61   60   68 1   
    62   61   62 1   
    63   61   64 1   
    64   61   69 1   
    65   62   63 2   
    66   62   72 1   
    67   64   65 1   
    68   64   70 1   
    69   64   71 1   
    70   65   66 1   
    71   65   67 1   
    72   72   73 1   
    73   72   76 1   
    74   73   74 1   
    75   73   77 1   
    76   73   78 1   
    77   74   75 2   
    78   74   79 1   
    79   79   80 1   
    80   79   86 1   
    81   80   81 1   
    82   80   83 1   
    83   80   87 1   
    84   81   82 2   
    85   81   93 1   
    86   83   84 1   
    87   83   85 1   
    88   83   88 1   
    89   84   90 1   
    90   84   91 1   
    91   84   92 1   
    92   85   89 1   
    93   93   94 1   
    94   93  101 1   
    95   94   95 1   
    96   94   97 1   
    97   94  102 1   
    98   95   96 2   
    99   95  112 1   
   100   97   98 1   
   101   97   99 1   
   102   97  103 1   
   103   98  100 1   
   104   98  104 1   
   105   98  105 1   
   106   99  106 1   
   107   99  107 1   
   108   99  108 1   
   109  100  109 1   
   110  100  110 1   
   111  100  111 1   
   112  112  113 1   
   113  112  119 1   
   114  113  114 1   
   115  113  116 1   
   116  113  120 1   
   117  114  115 2   
   118  114  126 1   
   119  116  117 1   
   120  116  118 1   
   121  116  121 1   
   122  117  123 1   
   123  117  124 1   
   124  117  125 1   
   125  118  122 1   
   126  126  127 1   
   127  126  133 1   
   128  127  128 1   
   129  127  130 1   
   130  127  134 1   
   131  128  129 2   
   132  128  140 1   
   133  130  131 1   
   134  130  132 1   
   135  130  135 1   
   136  131  137 1   
   137  131  138 1   
   138  131  139 1   
   139  132  136 1   
   140  140  141 1   
   141  140  149 1   
   142  141  142 1   
   143  141  144 1   
   144  141  150 1   
   145  142  143 2   
   146  142  162 1   
   147  144  145 1   
   148  144  151 1   
   149  144  152 1   
   150  145  146 1   
   151  145  153 1   
   152  145  154 1   
   153  146  147 1   
   154  146  155 1   
   155  146  156 1   
   156  147  148 1   
   157  147  157 1   
   158  147  158 1   
   159  148  159 1   
   160  148  160 1   
   161  148  161 1   
   162  162  163 1   
   163  162  171 1   
   164  163  164 1   
   165  163  166 1   
   166  163  172 1   
   167  164  165 2   
   168  164  177 1   
   169  166  167 1   
   170  166  173 1   
   171  166  174 1   
   172  167  168 1   
   173  167  175 1   
   174  167  176 1   
   175  168  169 1   
   176  168  170 1   
   177  177  178 1   
   178  177  182 1   
   179  178  179 1   
   180  178  180 1   
   181  178  181 1   
   182  184  185 1   
   183  184  186 1   
   184  187  188 1   
   185  187  189 1   
@<TRIPOS>SUBSTRUCTURE
     1 MOL         1 TEMP              0 ****  ****    0 ROOT
