@<TRIPOS>MOLECULE
MOL
  175   173     1     0     0
SMALL
resp


@<TRIPOS>ATOM
      1 C1         -0.1190    4.9990    5.4390 c3        1 MOL     -0.378561
      2 C2         -0.5230    4.4570    4.0510 c         1 MOL      0.721143
      3 O1          0.3450    4.3920    3.1770 o         1 MOL     -0.546238
      4 H1         -0.8730    4.7170    6.1720 hc        1 MOL      0.091064
      5 H2          0.8440    4.5770    5.7280 hc        1 MOL      0.091064
      6 H3         -0.0420    6.0850    5.3960 hc        1 MOL      0.091064
      7 N1         -1.7910    4.0330    3.8750 n         1 MOL     -0.678539
      8 C3         -2.2330    3.5400    2.5850 c3        1 MOL      0.213880
      9 C4         -2.1980    4.7020    1.5180 c         1 MOL      0.550254
     10 O2         -2.5110    5.8220    1.9210 o         1 MOL     -0.563776
     11 C5         -3.7250    3.1100    2.7620 c3        1 MOL     -0.379091
     12 C6         -4.2880    2.2400    1.6930 c         1 MOL      0.857487
     13 O3         -3.5230    1.8400    0.7890 o         1 MOL     -0.721107
     14 O4         -5.4020    1.7430    1.7720 o         1 MOL     -0.721107
     15 H4         -2.4800    3.9580    4.6170 hn        1 MOL      0.358592
     16 H5         -1.6160    2.7160    2.2160 h1        1 MOL      0.036441
     17 H6         -4.2760    4.0480    2.7780 hc        1 MOL      0.077250
     18 H7         -3.8400    2.7420    3.7770 hc        1 MOL      0.077250
     19 N2         -2.0600    4.3930    0.2100 n         1 MOL     -0.468527
     20 C7         -2.3880    5.4240   -0.8500 c3        1 MOL      0.253739
     21 C8         -3.2040    4.8990   -2.0620 c         1 MOL      0.422532
     22 O5         -3.2790    5.5920   -3.0920 o         1 MOL     -0.546483
     23 C9         -1.0670    6.0040   -1.3570 c3        1 MOL     -0.068413
     24 H8         -1.6500    3.5210   -0.0760 hn        1 MOL      0.269788
     25 H9         -2.9730    6.2390   -0.4230 h1        1 MOL      0.015012
     26 H10        -1.3080    6.6960   -2.1670 hc        1 MOL      0.010646
     27 H11        -0.6180    6.6010   -0.5610 hc        1 MOL      0.010646
     28 H12        -0.2810    5.2750   -1.5630 hc        1 MOL      0.010646
     29 N3         -3.8220    3.6960   -2.0000 n         1 MOL     -0.403130
     30 C10        -4.5920    3.1200   -3.1240 c3        1 MOL      0.261464
     31 C11        -5.8470    2.4730   -2.5870 c         1 MOL      0.309643
     32 O6         -6.6850    2.1710   -3.3830 o         1 MOL     -0.526317
     33 C12        -3.8970    2.0740   -3.8770 c3        1 MOL     -0.153945
     34 C13        -3.2190    1.0720   -2.9820 c         1 MOL      0.654189
     35 O7         -2.0610    0.7540   -3.1630 o         1 MOL     -0.676286
     36 O8         -3.8200    0.5200   -1.9930 o         1 MOL     -0.676286
     37 H13        -3.7100    3.2160   -1.1170 hn        1 MOL      0.213107
     38 H14        -4.9450    3.8680   -3.8310 h1        1 MOL      0.036673
     39 H15        -3.1300    2.6390   -4.4200 hc        1 MOL      0.040697
     40 H16        -4.5230    1.6040   -4.6290 hc        1 MOL      0.040697
     41 N4         -5.9770    2.1900   -1.2670 n         1 MOL     -0.219953
     42 C14        -7.1590    1.5200   -0.7020 c3        1 MOL     -0.099393
     43 C15        -7.3410    0.0550   -1.0400 c         1 MOL      0.444702
     44 O9         -8.3710   -0.5410   -0.9860 o         1 MOL     -0.607026
     45 H17        -5.2440    2.5550   -0.6670 hn        1 MOL      0.114154
     46 H18        -8.0520    2.0830   -0.9750 h1        1 MOL      0.093054
     47 H19        -7.1980    1.5890    0.3850 h1        1 MOL      0.093054
     48 N5         -6.2610   -0.6140   -1.4160 n         1 MOL     -0.079823
     49 C16        -6.3050   -1.9660   -2.0610 c3        1 MOL     -0.077628
     50 C17        -6.1920   -3.1480   -1.0820 c         1 MOL      0.409560
     51 O10        -6.2370   -4.3470   -1.4420 o         1 MOL     -0.541464
     52 C18        -5.1210   -1.9760   -3.0990 c3        1 MOL     -0.228223
     53 C19        -3.7230   -2.2470   -2.4900 c         1 MOL      0.490806
     54 N6         -2.7040   -2.5170   -3.2860 n         1 MOL     -0.518950
     55 O11        -3.5560   -2.1980   -1.2390 o         1 MOL     -0.342245
     56 H20        -5.3940   -0.0890   -1.5170 hn        1 MOL      0.226432
     57 H21        -7.2270   -2.0920   -2.6230 h1        1 MOL      0.121062
     58 H22        -5.1490   -1.0730   -3.7200 hc        1 MOL      0.067763
     59 H23        -5.2720   -2.8750   -3.6940 hc        1 MOL      0.067763
     60 H24        -2.8750   -2.8040   -4.2410 hn        1 MOL      0.297074
     61 H25        -1.7720   -2.4960   -2.8880 hn        1 MOL      0.297074
     62 N7         -5.9850   -2.8960    0.2060 n         1 MOL     -0.161075
     63 C20        -6.1090   -3.9080    1.3110 c3        1 MOL     -0.152316
     64 C21        -4.8300   -4.6440    1.6220 c         1 MOL      0.592644
     65 O12        -4.9100   -5.7010    2.2090 o         1 MOL     -0.632623
     66 H26        -5.7230   -1.9520    0.4190 hn        1 MOL      0.124185
     67 H27        -6.8540   -4.6560    1.0650 h1        1 MOL      0.085852
     68 H28        -6.4030   -3.5110    2.2880 h1        1 MOL      0.085852
     69 N8         -3.6920   -4.1520    1.2510 n         1 MOL     -0.107892
     70 C22        -2.3290   -4.5910    1.5920 c3        1 MOL     -0.255287
     71 C23        -1.2690   -3.4900    1.7870 c         1 MOL      0.412637
     72 O13        -1.2990   -2.5420    0.9940 o         1 MOL     -0.462762
     73 C24        -1.7930   -5.3290    0.3520 c3        1 MOL      0.503087
     74 C25        -2.2180   -6.7410    0.3370 c3        1 MOL     -0.504303
     75 O14        -2.2640   -4.8050   -0.8850 oh        1 MOL     -0.537704
     76 H29        -3.7420   -3.3180    0.6840 hn        1 MOL      0.053682
     77 H30        -2.3320   -5.1910    2.5030 h1        1 MOL      0.101048
     78 H31        -0.6990   -5.3000    0.3580 h1        1 MOL     -0.014519
     79 H32        -1.9870   -3.8800   -0.9230 ho        1 MOL      0.232453
     80 H33        -3.2950   -6.7930    0.4640 hc        1 MOL      0.124514
     81 H34        -1.9620   -7.2990   -0.5700 hc        1 MOL      0.124514
     82 H35        -1.6990   -7.2410    1.1510 hc        1 MOL      0.124514
     83 N9         -0.2500   -3.6200    2.5970 n         1 MOL     -0.372691
     84 C26         0.9890   -2.7300    2.4860 c3        1 MOL      0.053156
     85 C27         1.7660   -3.2170    1.2200 c         1 MOL      0.381175
     86 O15         2.1790   -4.3390    1.0500 o         1 MOL     -0.550819
     87 C28         1.9260   -2.9130    3.6640 c3        1 MOL     -0.066870
     88 C29         1.2540   -2.7660    5.0310 c3        1 MOL     -0.093514
     89 C30         3.0260   -1.7370    3.5420 c3        1 MOL     -0.256348
     90 C31         0.4360   -1.5090    5.1780 c3        1 MOL     -0.263439
     91 H36        -0.2300   -4.4480    3.1770 hn        1 MOL      0.297182
     92 H37         0.6920   -1.6850    2.4440 h1        1 MOL      0.046942
     93 H38         2.4280   -3.8750    3.5630 hc        1 MOL      0.050794
     94 H39         1.9800   -2.8020    5.8470 hc        1 MOL      0.047121
     95 H40         0.6510   -3.6680    5.1210 hc        1 MOL      0.047121
     96 H41         2.5470   -0.8160    3.1880 hc        1 MOL      0.085712
     97 H42         3.4350   -1.4160    4.4990 hc        1 MOL      0.085712
     98 H43         3.8260   -2.0120    2.8570 hc        1 MOL      0.085712
     99 H44        -0.3780   -1.5370    4.4560 hc        1 MOL      0.071382
    100 H45         0.0890   -1.4100    6.2040 hc        1 MOL      0.071382
    101 H46         1.0930   -0.6570    4.9910 hc        1 MOL      0.071382
    102 N10         1.9660   -2.2520    0.3480 n         1 MOL     -0.052645
    103 C32         2.7750   -2.3970   -0.8270 c3        1 MOL      0.033760
    104 C33         4.1650   -1.8390   -0.5690 c         1 MOL      0.490255
    105 O16         4.4020   -1.0640    0.3570 o         1 MOL     -0.397932
    106 C34         2.1160   -1.7700   -2.0580 c3        1 MOL     -0.386530
    107 C35         0.5830   -1.8930   -2.1490 c         1 MOL      0.858607
    108 O17        -0.0960   -1.2470   -1.4350 o         1 MOL     -0.716926
    109 O18         0.0950   -2.5920   -3.0690 o         1 MOL     -0.716926
    110 H47         1.4430   -1.3870    0.4340 hn        1 MOL      0.216791
    111 H48         2.9490   -3.4440   -1.0480 h1        1 MOL      0.075196
    112 H49         2.4760   -2.1990   -2.9930 hc        1 MOL      0.086963
    113 H50         2.4030   -0.7270   -2.0870 hc        1 MOL      0.086963
    114 N11         5.1830   -2.0480   -1.4200 n         1 MOL     -0.703026
    115 C36         6.5930   -1.4850   -1.2030 c3        1 MOL      0.444431
    116 C37         6.7170    0.0780   -1.0260 c         1 MOL      0.253101
    117 O19         7.3270    0.4160   -0.0210 o         1 MOL     -0.489886
    118 C38         7.5120   -1.9440   -2.3660 c3        1 MOL     -0.355039
    119 C39         9.0200   -1.5450   -2.1450 ca        1 MOL      0.106361
    120 C40         9.7690   -2.3910   -1.2900 ca        1 MOL     -0.116968
    121 C41         9.7320   -0.5310   -2.9220 ca        1 MOL     -0.116968
    122 C42        11.0930   -2.1060   -1.0720 ca        1 MOL     -0.159428
    123 C43        11.1640   -0.4820   -2.8390 ca        1 MOL     -0.159428
    124 C44        11.8310   -1.1750   -1.8450 ca        1 MOL     -0.061842
    125 H51         5.0850   -2.5870   -2.2710 hn        1 MOL      0.356249
    126 H52         7.0910   -1.8310   -0.2980 h1        1 MOL      0.029283
    127 H53         7.0330   -1.5610   -3.2720 hc        1 MOL      0.092431
    128 H54         7.3830   -3.0210   -2.3980 hc        1 MOL      0.092431
    129 H55         9.2450   -3.2150   -0.8280 ha        1 MOL      0.113649
    130 H56         9.2300    0.0350   -3.6830 ha        1 MOL      0.113649
    131 H57        11.6850   -2.7120   -0.3980 ha        1 MOL      0.113522
    132 H58        11.6890    0.2920   -3.3870 ha        1 MOL      0.113522
    133 H59        12.8970   -0.9910   -1.7400 ha        1 MOL      0.096086
    134 N12         5.9640    0.9670   -1.7400 n         1 MOL      0.074409
    135 C45         6.0530    2.4350   -1.5200 c3        1 MOL     -0.320167
    136 C46         5.1910    2.9950   -0.3840 c         1 MOL      0.498869
    137 O20         5.0080    4.2050   -0.1190 o         1 MOL     -0.562772
    138 C47         5.6620    3.0370   -2.8350 c3        1 MOL      0.107616
    139 C48         4.7600    2.0300   -3.5310 c3        1 MOL      0.017751
    140 C49         5.2400    0.6980   -3.0050 c3        1 MOL     -0.042396
    141 H60         7.0750    2.7040   -1.2690 h1        1 MOL      0.143394
    142 H61         5.1830    4.0130   -2.8450 hc        1 MOL      0.000541
    143 H62         6.5280    3.1630   -3.4830 hc        1 MOL      0.000541
    144 H63         3.7540    2.2700   -3.2030 hc        1 MOL      0.020756
    145 H64         4.8860    2.1350   -4.6110 hc        1 MOL      0.020756
    146 H65         4.4220   -0.0220   -2.8720 h1        1 MOL      0.021044
    147 H66         5.9530    0.3460   -3.7410 h1        1 MOL      0.021044
    148 N13         4.6380    2.1170    0.4480 n         1 MOL     -0.101607
    149 C50         3.9760    2.4270    1.7090 c3        1 MOL     -0.026527
    150 C51         4.7890    1.7900    2.8260 c         1 MOL      0.374208
    151 O21         5.0290    2.4470    3.8350 o         1 MOL     -0.553764
    152 C52         2.5150    1.9490    1.6590 c3        1 MOL      0.182015
    153 C53         1.7280    2.4150    0.4630 c3        1 MOL     -0.261627
    154 C54         0.4450    1.5500    0.2540 c         1 MOL      0.569765
    155 O22        -0.5170    1.9670   -0.4070 o         1 MOL     -0.640159
    156 O23         0.2010    0.4950    0.8980 o         1 MOL     -0.640159
    157 H67         4.7580    1.1390    0.2190 hn        1 MOL      0.058774
    158 H68         3.8990    3.4840    1.9510 h1        1 MOL      0.097726
    159 H69         1.9390    2.1170    2.5620 hc        1 MOL     -0.029716
    160 H70         2.6270    0.8720    1.5240 hc        1 MOL     -0.029716
    161 H71         2.3600    2.2360   -0.4030 hc        1 MOL      0.102533
    162 H72         1.5140    3.4790    0.5350 hc        1 MOL      0.102533
    163 N14         5.3160    0.5980    2.6300 n         1 MOL     -0.091563
    164 C55         6.3940    0.0490    3.4710 c3        1 MOL     -0.073805
    165 H73         7.2550   -0.1910    2.8470 h1        1 MOL      0.046919
    166 H74         6.6830    0.7870    4.2190 h1        1 MOL      0.046919
    167 H75         6.0430   -0.8550    3.9690 h1        1 MOL      0.046919
    168 H76         4.9380    0.0680    1.8600 hn        1 MOL      0.104176
    169 Ca1        -2.1250   -0.1210   -0.1130 Ca        1 MOL      1.626707
    170 O24        -2.0770   -0.0750    2.5460 oh        1 MOL     -0.739345
    171 H77        -2.4600    0.1180    3.4050 ho        1 MOL      0.371125
    172 H78        -1.1350    0.0490    2.6730 ho        1 MOL      0.371125
    173 O25        -4.4920   -0.7450    1.2950 oh        1 MOL     -0.739345
    174 H79        -4.0660   -0.7250    2.1540 ho        1 MOL      0.371125
    175 H80        -4.8560    0.1330    1.1910 ho        1 MOL      0.371125
@<TRIPOS>BOND
     1    1    2 1   
     2    1    4 1   
     3    1    5 1   
     4    1    6 1   
     5    2    3 2   
     6    2    7 1   
     7    7    8 1   
     8    7   15 1   
     9    8    9 1   
    10    8   11 1   
    11    8   16 1   
    12    9   10 2   
    13    9   19 1   
    14   11   12 1   
    15   11   17 1   
    16   11   18 1   
    17   12   13 1   
    18   12   14 1   
    19   19   20 1   
    20   19   24 1   
    21   20   21 1   
    22   20   23 1   
    23   20   25 1   
    24   21   22 2   
    25   21   29 1   
    26   23   26 1   
    27   23   27 1   
    28   23   28 1   
    29   29   30 1   
    30   29   37 1   
    31   30   31 1   
    32   30   33 1   
    33   30   38 1   
    34   31   32 2   
    35   31   41 1   
    36   33   34 1   
    37   33   39 1   
    38   33   40 1   
    39   34   35 1   
    40   34   36 1   
    41   41   42 1   
    42   41   45 1   
    43   42   43 1   
    44   42   46 1   
    45   42   47 1   
    46   43   44 2   
    47   43   48 1   
    48   48   49 1   
    49   48   56 1   
    50   49   50 1   
    51   49   52 1   
    52   49   57 1   
    53   50   51 2   
    54   50   62 1   
    55   52   53 1   
    56   52   58 1   
    57   52   59 1   
    58   53   54 1   
    59   53   55 2   
    60   54   60 1   
    61   54   61 1   
    62   62   63 1   
    63   62   66 1   
    64   63   64 1   
    65   63   67 1   
    66   63   68 1   
    67   64   65 2   
    68   64   69 1   
    69   69   70 1   
    70   69   76 1   
    71   70   71 1   
    72   70   73 1   
    73   70   77 1   
    74   71   72 2   
    75   71   83 1   
    76   73   74 1   
    77   73   75 1   
    78   73   78 1   
    79   74   80 1   
    80   74   81 1   
    81   74   82 1   
    82   75   79 1   
    83   83   84 1   
    84   83   91 1   
    85   84   85 1   
    86   84   87 1   
    87   84   92 1   
    88   85   86 2   
    89   85  102 1   
    90   87   88 1   
    91   87   89 1   
    92   87   93 1   
    93   88   90 1   
    94   88   94 1   
    95   88   95 1   
    96   89   96 1   
    97   89   97 1   
    98   89   98 1   
    99   90   99 1   
   100   90  100 1   
   101   90  101 1   
   102  102  103 1   
   103  102  110 1   
   104  103  104 1   
   105  103  106 1   
   106  103  111 1   
   107  104  105 2   
   108  104  114 1   
   109  106  107 1   
   110  106  112 1   
   111  106  113 1   
   112  107  108 1   
   113  107  109 1   
   114  114  115 1   
   115  114  125 1   
   116  115  116 1   
   117  115  118 1   
   118  115  126 1   
   119  116  117 2   
   120  116  134 1   
   121  118  119 1   
   122  118  127 1   
   123  118  128 1   
   124  119  120 ar  
   125  119  121 ar  
   126  120  122 ar  
   127  120  129 1   
   128  121  123 ar  
   129  121  130 1   
   130  122  124 ar  
   131  122  131 1   
   132  123  124 ar  
   133  123  132 1   
   134  124  133 1   
   135  134  135 1   
   136  134  140 1   
   137  135  136 1   
   138  135  138 1   
   139  135  141 1   
   140  136  137 2   
   141  136  148 1   
   142  138  139 1   
   143  138  142 1   
   144  138  143 1   
   145  139  140 1   
   146  139  144 1   
   147  139  145 1   
   148  140  146 1   
   149  140  147 1   
   150  148  149 1   
   151  148  157 1   
   152  149  150 1   
   153  149  152 1   
   154  149  158 1   
   155  150  151 2   
   156  150  163 1   
   157  152  153 1   
   158  152  159 1   
   159  152  160 1   
   160  153  154 1   
   161  153  161 1   
   162  153  162 1   
   163  154  155 1   
   164  154  156 1   
   165  163  164 1   
   166  163  168 1   
   167  164  165 1   
   168  164  166 1   
   169  164  167 1   
   170  170  171 1   
   171  170  172 1   
   172  173  174 1   
   173  173  175 1   
@<TRIPOS>SUBSTRUCTURE
     1 MOL         1 TEMP              0 ****  ****    0 ROOT
