@<TRIPOS>MOLECULE
MOL
  175   173     1     0     0
SMALL
resp


@<TRIPOS>ATOM
      1 C1          0.4750    4.3300    5.2060 c3        1 MOL     -0.294656
      2 C2         -0.1930    4.5110    3.7750 c         1 MOL      0.659883
      3 O1          0.3970    5.1930    2.9610 o         1 MOL     -0.512808
      4 H1          1.5510    4.1980    5.0900 hc        1 MOL      0.061795
      5 H2          0.2810    5.2150    5.8130 hc        1 MOL      0.061795
      6 H3          0.0520    3.4530    5.6970 hc        1 MOL      0.061795
      7 N1         -1.4090    4.0070    3.6650 n         1 MOL     -0.596281
      8 C3         -2.1830    3.7640    2.4600 c3        1 MOL      0.021768
      9 C4         -2.2670    5.0300    1.5290 c         1 MOL      0.683458
     10 O2         -2.3650    6.2240    1.9260 o         1 MOL     -0.550055
     11 C5         -3.5750    3.2310    2.8600 c3        1 MOL     -0.422938
     12 C6         -4.2810    2.5930    1.6420 c         1 MOL      0.799772
     13 O3         -5.4500    2.1530    1.7820 o         1 MOL     -0.691058
     14 O4         -3.6200    2.1500    0.6540 o         1 MOL     -0.691058
     15 H4         -1.8840    3.9030    4.5500 hn        1 MOL      0.330881
     16 H5         -1.6750    2.9860    1.8820 h1        1 MOL      0.165352
     17 H6         -4.2100    4.0480    3.2040 hc        1 MOL      0.109532
     18 H7         -3.5280    2.4110    3.5780 hc        1 MOL      0.109532
     19 N2         -2.2580    4.7660    0.1500 n         1 MOL     -0.763033
     20 C7         -2.4370    5.7390   -0.9100 c3        1 MOL      0.355346
     21 C8         -3.4040    5.1390   -1.9970 c         1 MOL      0.376243
     22 O5         -3.6330    5.8770   -2.9710 o         1 MOL     -0.559918
     23 C9         -1.0760    6.1120   -1.4770 c3        1 MOL     -0.288068
     24 H8         -2.1270    3.7960   -0.0770 hn        1 MOL      0.404573
     25 H9         -2.8940    6.6650   -0.5520 h1        1 MOL      0.012822
     26 H10        -1.0310    6.8810   -2.2480 hc        1 MOL      0.077772
     27 H11        -0.3770    6.3570   -0.6790 hc        1 MOL      0.077772
     28 H12        -0.7260    5.2340   -2.0140 hc        1 MOL      0.077772
     29 N3         -3.9370    3.9010   -1.8820 n         1 MOL     -0.266020
     30 C10        -4.8400    3.3230   -2.9380 c3        1 MOL      0.082580
     31 C11        -6.1050    2.4530   -2.4830 c         1 MOL      0.267213
     32 O6         -7.0910    2.3230   -3.2070 o         1 MOL     -0.511711
     33 C12        -3.9850    2.3350   -3.8090 c3        1 MOL     -0.000856
     34 C13        -3.0800    1.3800   -3.1100 c         1 MOL      0.638830
     35 O7         -3.4990    0.6440   -2.1890 o         1 MOL     -0.671691
     36 O8         -1.9290    1.3190   -3.4910 o         1 MOL     -0.671691
     37 H13        -3.7530    3.3490   -1.0540 hn        1 MOL      0.178480
     38 H14        -5.1660    4.0020   -3.7170 h1        1 MOL      0.078468
     39 H15        -3.4760    2.9640   -4.5450 hc        1 MOL     -0.001696
     40 H16        -4.7460    1.7730   -4.3510 hc        1 MOL     -0.001696
     41 N4         -6.1100    1.8540   -1.2310 n         1 MOL     -0.010770
     42 C14        -7.2360    1.1650   -0.6520 c3        1 MOL     -0.161585
     43 C15        -7.1810   -0.3280   -1.0160 c         1 MOL      0.470817
     44 O9         -8.2010   -0.9760   -0.8540 o         1 MOL     -0.617550
     45 H17        -5.3450    1.9820   -0.5840 hn        1 MOL     -0.004657
     46 H18        -8.1860    1.6270   -0.9290 h1        1 MOL      0.102725
     47 H19        -7.2950    1.1740    0.4320 h1        1 MOL      0.102725
     48 N5         -6.0590   -0.8560   -1.5250 n         1 MOL     -0.175113
     49 C16        -6.1000   -2.2190   -2.0290 c3        1 MOL     -0.003924
     50 C17        -6.0350   -3.2370   -1.0070 c         1 MOL      0.508751
     51 O10        -5.7920   -4.3210   -1.4270 o         1 MOL     -0.514519
     52 C18        -4.8880   -2.2860   -3.1130 c3        1 MOL     -0.298723
     53 C19        -3.5360   -2.4330   -2.5350 c         1 MOL      0.664245
     54 N6         -2.6230   -2.9980   -3.3200 n         1 MOL     -0.595930
     55 O11        -3.3130   -2.0920   -1.3440 o         1 MOL     -0.647803
     56 H20        -5.2830   -0.2520   -1.7450 hn        1 MOL      0.191449
     57 H21        -7.0210   -2.4700   -2.5560 h1        1 MOL      0.098736
     58 H22        -4.9110   -1.3940   -3.7480 hc        1 MOL      0.080617
     59 H23        -5.0140   -3.1880   -3.7270 hc        1 MOL      0.080617
     60 H24        -2.7880   -3.3200   -4.2670 hn        1 MOL      0.323587
     61 H25        -1.6820   -3.0020   -2.9550 hn        1 MOL      0.323587
     62 N7         -6.1980   -2.9920    0.3180 n         1 MOL     -0.288644
     63 C20        -6.2590   -4.0620    1.3210 c3        1 MOL     -0.304857
     64 C21        -4.9610   -4.7550    1.5920 c         1 MOL      0.621492
     65 O12        -5.0440   -5.7830    2.2690 o         1 MOL     -0.602066
     66 H26        -6.2020   -2.0230    0.6030 hn        1 MOL      0.267517
     67 H27        -6.9920   -4.8160    1.0420 h1        1 MOL      0.130079
     68 H28        -6.5810   -3.5730    2.2380 h1        1 MOL      0.130079
     69 N8         -3.8490   -4.2050    1.1900 n         1 MOL     -0.309938
     70 C22        -2.4620   -4.6180    1.4650 c3        1 MOL     -0.055348
     71 C23        -1.4810   -3.4370    1.7210 c         1 MOL      0.492147
     72 O13        -1.7920   -2.3660    1.2260 o         1 MOL     -0.523247
     73 C24        -1.8240   -5.5390    0.4050 c3        1 MOL      0.653235
     74 C25        -2.4340   -6.9420    0.3090 c3        1 MOL     -0.329459
     75 O14        -1.9800   -4.9880   -0.8690 oh        1 MOL     -0.698013
     76 H29        -3.9420   -3.4240    0.5510 hn        1 MOL      0.236744
     77 H30        -2.5780   -5.3280    2.2830 h1        1 MOL      0.015031
     78 H31        -0.7670   -5.7070    0.6380 h1        1 MOL     -0.085644
     79 H32        -1.5630   -4.1300   -0.9630 ho        1 MOL      0.397350
     80 H33        -2.0190   -7.5780    1.0910 hc        1 MOL      0.067936
     81 H34        -3.5260   -6.9300    0.3890 hc        1 MOL      0.067936
     82 H35        -2.0060   -7.3870   -0.5830 hc        1 MOL      0.067936
     83 N9         -0.3570   -3.6950    2.4250 n         1 MOL     -0.585754
     84 C26         0.8070   -2.7670    2.3770 c3        1 MOL      0.220044
     85 C27         1.5510   -3.0960    1.0180 c         1 MOL      0.484112
     86 O15         1.8340   -4.2330    0.6600 o         1 MOL     -0.601475
     87 C28         1.6050   -2.7130    3.6570 c3        1 MOL      0.000504
     88 C29         0.9150   -1.7100    4.5480 c3        1 MOL      0.149500
     89 C30         3.0960   -2.2510    3.4160 c3        1 MOL     -0.293023
     90 C31         1.2820   -1.6270    6.0460 c3        1 MOL     -0.081946
     91 H36        -0.2600   -4.6520    2.7340 hn        1 MOL      0.286881
     92 H37         0.3240   -1.8010    2.2110 h1        1 MOL      0.063743
     93 H38         1.6240   -3.7100    4.0850 hc        1 MOL      0.022387
     94 H39        -0.1640   -1.8950    4.5110 hc        1 MOL     -0.048392
     95 H40         1.0060   -0.7440    4.0530 hc        1 MOL     -0.048392
     96 H41         3.4840   -2.9990    2.7220 hc        1 MOL      0.056080
     97 H42         3.2100   -1.2710    2.9470 hc        1 MOL      0.056080
     98 H43         3.5530   -2.2160    4.4010 hc        1 MOL      0.056080
     99 H44         2.2890   -1.2500    6.2430 hc        1 MOL      0.011003
    100 H45         0.5500   -0.9970    6.5410 hc        1 MOL      0.011003
    101 H46         1.2050   -2.5980    6.5320 hc        1 MOL      0.011003
    102 N10         1.9150   -2.0740    0.2990 n         1 MOL     -0.039525
    103 C32         2.6660   -2.0420   -1.0370 c3        1 MOL     -0.047706
    104 C33         4.1370   -1.6310   -0.8080 c         1 MOL      0.355528
    105 O16         4.3800   -1.0000    0.1840 o         1 MOL     -0.268753
    106 C34         1.9340   -1.0810   -2.0070 c3        1 MOL     -0.200527
    107 C35         0.4680   -1.6300   -2.1610 c         1 MOL      0.712468
    108 O17        -0.3280   -1.2860   -1.3310 o         1 MOL     -0.696184
    109 O18         0.2090   -2.4180   -3.0880 o         1 MOL     -0.696184
    110 H47         1.6760   -1.1640    0.6850 hn        1 MOL      0.057926
    111 H48         2.6140   -2.9550   -1.6330 h1        1 MOL      0.082358
    112 H49         2.4030   -1.0130   -2.9890 hc        1 MOL      0.070709
    113 H50         1.8500   -0.0250   -1.7330 hc        1 MOL      0.070709
    114 N11         5.0630   -1.9640   -1.6870 n         1 MOL     -0.512880
    115 C36         6.4560   -1.6810   -1.4110 c3        1 MOL      0.194466
    116 C37         6.7390   -0.1710   -1.0730 c         1 MOL      0.475224
    117 O19         7.3790   -0.0100   -0.0000 o         1 MOL     -0.528817
    118 C38         7.4110   -2.1290   -2.4680 c3        1 MOL     -0.193096
    119 C39         8.8570   -1.7770   -2.2440 ca        1 MOL      0.137801
    120 C40         9.5850   -2.4090   -1.1800 ca        1 MOL     -0.235824
    121 C41         9.4880   -0.8140   -3.0540 ca        1 MOL     -0.235824
    122 C42        10.9410   -2.0010   -0.9560 ca        1 MOL      0.015564
    123 C43        10.8090   -0.4390   -2.8540 ca        1 MOL      0.015564
    124 C44        11.5340   -1.1640   -1.8960 ca        1 MOL     -0.241634
    125 H51         4.8040   -2.3750   -2.5790 hn        1 MOL      0.325989
    126 H52         6.6520   -2.1150   -0.4350 h1        1 MOL      0.077944
    127 H53         7.1790   -1.6920   -3.4460 hc        1 MOL      0.064027
    128 H54         7.1940   -3.1740   -2.6770 hc        1 MOL      0.064027
    129 H55         9.1570   -3.0600   -0.4310 ha        1 MOL      0.133668
    130 H56         9.0040   -0.3690   -3.9040 ha        1 MOL      0.133668
    131 H57        11.4920   -2.4180   -0.1290 ha        1 MOL      0.085061
    132 H58        11.3530    0.0770   -3.6320 ha        1 MOL      0.085061
    133 H59        12.5760   -0.9520   -1.7040 ha        1 MOL      0.114500
    134 N12         6.1790    0.8950   -1.7290 n         1 MOL     -0.244099
    135 C45         6.4570    2.2940   -1.4570 c3        1 MOL      0.014635
    136 C46         5.6660    2.7520   -0.1780 c         1 MOL      0.372992
    137 O20         5.9500    3.7890    0.4180 o         1 MOL     -0.504728
    138 C47         6.0700    3.1270   -2.6550 c3        1 MOL     -0.096501
    139 C48         5.0010    2.3590   -3.3200 c3        1 MOL     -0.012781
    140 C49         5.4070    0.8890   -2.9960 c3        1 MOL      0.055182
    141 H60         7.5280    2.4100   -1.2710 h1        1 MOL      0.075984
    142 H61         5.9640    4.1800   -2.3910 hc        1 MOL      0.055457
    143 H62         6.9810    3.0560   -3.2540 hc        1 MOL      0.055457
    144 H63         3.9910    2.5240   -2.9340 hc        1 MOL      0.034931
    145 H64         5.0030    2.4380   -4.4040 hc        1 MOL      0.034931
    146 H65         4.4900    0.3070   -2.8860 h1        1 MOL      0.005672
    147 H66         5.9580    0.5300   -3.8670 h1        1 MOL      0.005672
    148 N13         4.6920    1.9130    0.2940 n         1 MOL     -0.199046
    149 C50         4.0190    2.0680    1.6400 c3        1 MOL      0.010182
    150 C51         4.7310    1.4540    2.8520 c         1 MOL      0.368811
    151 O21         4.8840    2.0550    3.9190 o         1 MOL     -0.539499
    152 C52         2.6550    1.4290    1.4980 c3        1 MOL      0.012410
    153 C53         1.7620    2.1740    0.5180 c3        1 MOL     -0.108257
    154 C54         0.3480    1.5270    0.5940 c         1 MOL      0.678474
    155 O22         0.0910    0.5250    1.3320 o         1 MOL     -0.736485
    156 O23        -0.5920    1.9740   -0.1060 o         1 MOL     -0.736485
    157 H67         4.5650    1.0520   -0.2260 hn        1 MOL      0.182929
    158 H68         3.9250    3.1050    1.9400 h1        1 MOL      0.087217
    159 H69         2.1440    1.5720    2.4510 hc        1 MOL      0.031472
    160 H70         2.7750    0.4000    1.1780 hc        1 MOL      0.031472
    161 H71         2.1210    1.9940   -0.4900 hc        1 MOL      0.044472
    162 H72         1.7330    3.2450    0.7170 hc        1 MOL      0.044472
    163 N14         5.3160    0.2740    2.6380 n         1 MOL      0.011531
    164 C55         6.3060   -0.4120    3.4850 c3        1 MOL     -0.167356
    165 H73         7.3070   -0.2260    3.0960 h1        1 MOL      0.067971
    166 H74         6.2370   -0.0330    4.5050 h1        1 MOL      0.067971
    167 H75         6.1070   -1.4830    3.4810 h1        1 MOL      0.067971
    168 H76         5.1820   -0.1790    1.7470 hn        1 MOL      0.035140
    169 Ca1        -2.2640   -0.0530   -0.0560 Ca        1 MOL      1.707354
    170 O24        -2.0660    0.3270    2.7410 oh        1 MOL     -0.761725
    171 H77        -1.1230    0.3420    2.5470 ho        1 MOL      0.374359
    172 H78        -2.1260    0.5780    3.6620 ho        1 MOL      0.374359
    173 O25        -4.4640   -0.6520    1.4980 oh        1 MOL     -0.761725
    174 H79        -4.1330   -0.7620    2.3820 ho        1 MOL      0.374359
    175 H80        -5.1590   -0.0040    1.5830 ho        1 MOL      0.374359
@<TRIPOS>BOND
     1    1    2 1   
     2    1    4 1   
     3    1    5 1   
     4    1    6 1   
     5    2    3 2   
     6    2    7 1   
     7    7    8 1   
     8    7   15 1   
     9    8    9 1   
    10    8   11 1   
    11    8   16 1   
    12    9   10 2   
    13    9   19 1   
    14   11   12 1   
    15   11   17 1   
    16   11   18 1   
    17   12   13 1   
    18   12   14 1   
    19   19   20 1   
    20   19   24 1   
    21   20   21 1   
    22   20   23 1   
    23   20   25 1   
    24   21   22 2   
    25   21   29 1   
    26   23   26 1   
    27   23   27 1   
    28   23   28 1   
    29   29   30 1   
    30   29   37 1   
    31   30   31 1   
    32   30   33 1   
    33   30   38 1   
    34   31   32 2   
    35   31   41 1   
    36   33   34 1   
    37   33   39 1   
    38   33   40 1   
    39   34   35 1   
    40   34   36 1   
    41   41   42 1   
    42   41   45 1   
    43   42   43 1   
    44   42   46 1   
    45   42   47 1   
    46   43   44 2   
    47   43   48 1   
    48   48   49 1   
    49   48   56 1   
    50   49   50 1   
    51   49   52 1   
    52   49   57 1   
    53   50   51 2   
    54   50   62 1   
    55   52   53 1   
    56   52   58 1   
    57   52   59 1   
    58   53   54 1   
    59   53   55 2   
    60   54   60 1   
    61   54   61 1   
    62   62   63 1   
    63   62   66 1   
    64   63   64 1   
    65   63   67 1   
    66   63   68 1   
    67   64   65 2   
    68   64   69 1   
    69   69   70 1   
    70   69   76 1   
    71   70   71 1   
    72   70   73 1   
    73   70   77 1   
    74   71   72 2   
    75   71   83 1   
    76   73   74 1   
    77   73   75 1   
    78   73   78 1   
    79   74   80 1   
    80   74   81 1   
    81   74   82 1   
    82   75   79 1   
    83   83   84 1   
    84   83   91 1   
    85   84   85 1   
    86   84   87 1   
    87   84   92 1   
    88   85   86 2   
    89   85  102 1   
    90   87   88 1   
    91   87   89 1   
    92   87   93 1   
    93   88   90 1   
    94   88   94 1   
    95   88   95 1   
    96   89   96 1   
    97   89   97 1   
    98   89   98 1   
    99   90   99 1   
   100   90  100 1   
   101   90  101 1   
   102  102  103 1   
   103  102  110 1   
   104  103  104 1   
   105  103  106 1   
   106  103  111 1   
   107  104  105 2   
   108  104  114 1   
   109  106  107 1   
   110  106  112 1   
   111  106  113 1   
   112  107  108 1   
   113  107  109 1   
   114  114  115 1   
   115  114  125 1   
   116  115  116 1   
   117  115  118 1   
   118  115  126 1   
   119  116  117 2   
   120  116  134 1   
   121  118  119 1   
   122  118  127 1   
   123  118  128 1   
   124  119  120 ar  
   125  119  121 ar  
   126  120  122 ar  
   127  120  129 1   
   128  121  123 ar  
   129  121  130 1   
   130  122  124 ar  
   131  122  131 1   
   132  123  124 ar  
   133  123  132 1   
   134  124  133 1   
   135  134  135 1   
   136  134  140 1   
   137  135  136 1   
   138  135  138 1   
   139  135  141 1   
   140  136  137 2   
   141  136  148 1   
   142  138  139 1   
   143  138  142 1   
   144  138  143 1   
   145  139  140 1   
   146  139  144 1   
   147  139  145 1   
   148  140  146 1   
   149  140  147 1   
   150  148  149 1   
   151  148  157 1   
   152  149  150 1   
   153  149  152 1   
   154  149  158 1   
   155  150  151 2   
   156  150  163 1   
   157  152  153 1   
   158  152  159 1   
   159  152  160 1   
   160  153  154 1   
   161  153  161 1   
   162  153  162 1   
   163  154  155 1   
   164  154  156 1   
   165  163  164 1   
   166  163  168 1   
   167  164  165 1   
   168  164  166 1   
   169  164  167 1   
   170  170  171 1   
   171  170  172 1   
   172  173  174 1   
   173  173  175 1   
@<TRIPOS>SUBSTRUCTURE
     1 MOL         1 TEMP              0 ****  ****    0 ROOT
