@<TRIPOS>MOLECULE
MOL
  189   185     1     0     0
SMALL
resp


@<TRIPOS>ATOM
      1 C1         -1.3460    3.1950    6.0830 c3        1 MOL     -0.294532
      2 C2         -1.2570    2.4940    4.6440 c         1 MOL      0.620309
      3 O1         -0.1500    2.3100    4.1150 o         1 MOL     -0.550914
      4 H1         -0.3870    3.0990    6.5930 hc        1 MOL      0.072697
      5 H2         -1.5870    4.2510    5.9590 hc        1 MOL      0.072697
      6 H3         -2.1220    2.7120    6.6760 hc        1 MOL      0.072697
      7 N1         -2.4670    2.1770    4.1120 n         1 MOL     -0.493530
      8 C3         -2.7830    1.7860    2.6930 c3        1 MOL      0.135413
      9 C4         -3.2150    3.0010    1.9150 c         1 MOL      0.318705
     10 O2         -4.3430    3.5270    2.0990 o         1 MOL     -0.498857
     11 C5         -3.8690    0.6830    2.7760 c3        1 MOL     -0.446058
     12 C6         -4.4400    0.3180    1.3500 c         1 MOL      1.041864
     13 O3         -5.5930   -0.0410    1.2140 o         1 MOL     -0.718379
     14 O4         -3.5930    0.4540    0.4590 o         1 MOL     -0.718379
     15 H4         -3.2900    2.0490    4.6920 hn        1 MOL      0.318272
     16 H5         -1.8930    1.4380    2.1590 h1        1 MOL      0.008572
     17 H6         -4.7070    1.1010    3.3320 hc        1 MOL      0.087238
     18 H7         -3.5060   -0.1710    3.3510 hc        1 MOL      0.087238
     19 N2         -2.3310    3.5100    0.9980 n         1 MOL     -0.083144
     20 C7         -2.4570    4.9290    0.5150 c3        1 MOL     -0.119899
     21 C8         -3.2530    5.0580   -0.8230 c         1 MOL      0.493009
     22 O5         -3.4320    6.0640   -1.4700 o         1 MOL     -0.543679
     23 C9         -1.0920    5.6000    0.3620 c3        1 MOL      0.211236
     24 C10        -0.2550    5.8820    1.6930 c3        1 MOL     -0.087973
     25 C11         1.1160    6.6110    1.7050 c3        1 MOL     -0.040842
     26 C12         1.0220    8.0010    1.0890 c3        1 MOL      0.094589
     27 N3          2.3800    8.6220    0.9760 n4        1 MOL     -0.445481
     28 H8         -1.5010    3.0420    0.6730 hn        1 MOL      0.161565
     29 H9         -2.8380    5.5550    1.3130 h1        1 MOL      0.067177
     30 H10        -1.2920    6.5520   -0.1070 hc        1 MOL     -0.042396
     31 H11        -0.4580    5.0840   -0.3570 hc        1 MOL     -0.042396
     32 H12        -0.1180    4.8680    2.0530 hc        1 MOL      0.034235
     33 H13        -1.0130    6.3430    2.3300 hc        1 MOL      0.034235
     34 H14         1.9200    6.0330    1.2500 hc        1 MOL      0.054372
     35 H15         1.3420    6.6550    2.7710 hc        1 MOL      0.054372
     36 H16         0.3520    8.6080    1.6970 hx        1 MOL      0.069278
     37 H17         0.6640    8.0210    0.0580 hx        1 MOL      0.069278
     38 H18         2.2330    9.5290    0.5710 hn        1 MOL      0.345324
     39 H19         2.8830    8.7850    1.8340 hn        1 MOL      0.345324
     40 H20         2.9170    8.0680    0.3170 hn        1 MOL      0.345324
     41 N4         -3.7160    3.9030   -1.3280 n         1 MOL     -0.306306
     42 C13        -4.3460    3.7350   -2.6460 c3        1 MOL      0.021835
     43 C14        -5.5300    2.7330   -2.7430 c         1 MOL      0.276371
     44 O6         -5.8630    2.1920   -3.7950 o         1 MOL     -0.414608
     45 C15        -3.3360    3.5740   -3.7430 c3        1 MOL     -0.120269
     46 C16        -2.3840    2.4050   -3.5030 c         1 MOL      0.877084
     47 O7         -1.2360    2.3560   -4.0700 o         1 MOL     -0.771571
     48 O8         -2.8140    1.4540   -2.7990 o         1 MOL     -0.771571
     49 H21        -3.5790    3.0690   -0.7800 hn        1 MOL      0.121716
     50 H22        -4.7320    4.7210   -2.9010 h1        1 MOL      0.091414
     51 H23        -2.6630    4.4240   -3.6760 hc        1 MOL      0.020715
     52 H24        -3.7620    3.4630   -4.7410 hc        1 MOL      0.020715
     53 N5         -6.0710    2.2270   -1.6140 n         1 MOL     -0.037831
     54 C17        -7.3450    1.4770   -1.5940 c3        1 MOL     -0.360496
     55 C18        -7.3040    0.0740   -2.1280 c         1 MOL      0.593554
     56 O9         -8.0760   -0.3000   -3.0430 o         1 MOL     -0.575495
     57 H25        -5.9280    2.7260   -0.7440 hn        1 MOL      0.192228
     58 H26        -8.0500    2.0210   -2.2190 h1        1 MOL      0.126381
     59 H27        -7.7590    1.4460   -0.5800 h1        1 MOL      0.126381
     60 N6         -6.5260   -0.8390   -1.4710 n         1 MOL     -0.116620
     61 C19        -6.6800   -2.3040   -1.7490 c3        1 MOL     -0.104096
     62 C20        -6.7690   -3.1850   -0.5290 c         1 MOL      0.421579
     63 O10        -7.0210   -4.3320   -0.6940 o         1 MOL     -0.479063
     64 C21        -5.5560   -2.7390   -2.6940 c3        1 MOL     -0.009866
     65 C22        -4.2310   -2.1010   -2.3430 c         1 MOL      0.466787
     66 O11        -3.7920   -2.1380   -1.1860 o         1 MOL     -0.585825
     67 O12        -3.6260   -1.4230   -3.1110 o         1 MOL     -0.585825
     68 H28        -5.9840   -0.5170   -0.6810 hn        1 MOL      0.009817
     69 H29        -7.6330   -2.4140   -2.2770 h1        1 MOL      0.106194
     70 H30        -5.8070   -2.2260   -3.6210 hc        1 MOL      0.032545
     71 H31        -5.6210   -3.8060   -2.9160 hc        1 MOL      0.032545
     72 N7         -6.4890   -2.6600    0.6700 n         1 MOL     -0.320757
     73 C23        -6.2680   -3.5820    1.8010 c3        1 MOL     -0.096059
     74 C24        -4.9890   -4.4400    1.7430 c         1 MOL      0.526377
     75 O13        -5.0400   -5.5330    2.1850 o         1 MOL     -0.530684
     76 H32        -6.3440   -1.6740    0.8120 hn        1 MOL      0.285605
     77 H33        -7.0870   -4.3070    1.7690 h1        1 MOL      0.065139
     78 H34        -6.2150   -3.0220    2.7390 h1        1 MOL      0.065139
     79 N8         -3.9390   -3.8570    1.1370 n         1 MOL     -0.115318
     80 C25        -2.5680   -4.5090    1.0390 c3        1 MOL     -0.612927
     81 C26        -1.5460   -3.3600    1.1610 c         1 MOL      0.890346
     82 O14        -1.6240   -2.3650    0.4380 o         1 MOL     -0.665264
     83 C27        -2.3770   -5.3130   -0.1880 c3        1 MOL      0.673873
     84 C28        -2.8450   -6.7550   -0.0820 c3        1 MOL     -0.484284
     85 O15        -3.1120   -4.7960   -1.2660 oh        1 MOL     -0.669044
     86 H35        -3.9870   -2.8910    0.8430 hn        1 MOL      0.113625
     87 H36        -2.4080   -5.1540    1.9050 h1        1 MOL      0.182364
     88 H37        -1.3280   -5.3130   -0.4940 h1        1 MOL     -0.059803
     89 H38        -3.4010   -3.9000   -1.0640 ho        1 MOL      0.436839
     90 H39        -2.4370   -7.4160   -0.8570 hc        1 MOL      0.116298
     91 H40        -2.6480   -7.2170    0.8780 hc        1 MOL      0.116298
     92 H41        -3.9120   -6.9060   -0.2420 hc        1 MOL      0.116298
     93 N9         -0.5450   -3.5550    2.0980 n         1 MOL     -0.699612
     94 C29         0.6640   -2.6970    2.2390 c3        1 MOL      0.067516
     95 C30         1.8040   -3.3920    1.4580 c         1 MOL      0.566020
     96 O16         1.9430   -4.6000    1.4730 o         1 MOL     -0.568256
     97 C31         0.9200   -2.5320    3.7450 c3        1 MOL      0.027264
     98 C32        -0.0900   -1.6130    4.4070 c3        1 MOL      0.163224
     99 C33         2.3700   -2.1490    4.0670 c3        1 MOL     -0.270364
    100 C34        -0.0280   -1.3020    5.9220 c3        1 MOL     -0.444107
    101 H42        -0.4270   -4.5060    2.4260 hn        1 MOL      0.323515
    102 H43         0.3900   -1.7560    1.7520 h1        1 MOL      0.071347
    103 H44         0.5890   -3.3940    4.3160 hc        1 MOL      0.027060
    104 H45        -1.1120   -1.8450    4.1170 hc        1 MOL      0.018706
    105 H46         0.0920   -0.6540    3.9140 hc        1 MOL      0.018706
    106 H47         2.5940   -1.1760    3.6230 hc        1 MOL      0.070830
    107 H48         2.5800   -2.0430    5.1330 hc        1 MOL      0.070830
    108 H49         3.0480   -2.9360    3.7540 hc        1 MOL      0.070830
    109 H50        -0.8630   -0.6610    6.1970 hc        1 MOL      0.111504
    110 H51         0.0710   -2.2440    6.4660 hc        1 MOL      0.111504
    111 H52         0.9000   -0.7410    6.0750 hc        1 MOL      0.111504
    112 N10         2.6600   -2.6160    0.8260 n         1 MOL     -0.061627
    113 C35         3.7080   -3.0460   -0.0970 c3        1 MOL     -0.079258
    114 C36         5.0830   -2.5570    0.4390 c         1 MOL      0.369567
    115 O17         5.2040   -1.8090    1.4180 o         1 MOL     -0.391858
    116 C37         3.5030   -2.4170   -1.5110 c3        1 MOL      0.006016
    117 C38         2.1630   -2.8610   -2.0560 c3        1 MOL     -0.258890
    118 O18         3.7230   -1.0470   -1.4270 oh        1 MOL     -0.274308
    119 H53         2.4680   -1.6190    0.7800 hn        1 MOL      0.016067
    120 H54         3.7030   -4.1340   -0.1450 h1        1 MOL      0.109802
    121 H55         4.2880   -2.6530   -2.2290 h1        1 MOL      0.023308
    122 H56         3.3240   -0.7570   -2.2490 ho        1 MOL      0.346196
    123 H57         2.1960   -2.7780   -3.1390 hc        1 MOL      0.108956
    124 H58         1.9900   -3.9150   -1.8760 hc        1 MOL      0.108956
    125 H59         1.4070   -2.1530   -1.7050 hc        1 MOL      0.108956
    126 N11         6.1980   -2.9540   -0.2190 n         1 MOL     -0.341767
    127 C39         7.5690   -2.3800    0.0180 c3        1 MOL     -0.115952
    128 C40         7.7020   -0.9070   -0.1300 c         1 MOL      0.397497
    129 O19         8.6370   -0.2750    0.3220 o         1 MOL     -0.521698
    130 C41         8.7540   -3.0340   -0.7550 c3        1 MOL      0.249963
    131 C42         8.8540   -4.5370   -0.5510 c3        1 MOL     -0.270265
    132 O20         8.5600   -2.8400   -2.1520 oh        1 MOL     -0.609866
    133 H60         6.0040   -3.6030   -0.9630 hn        1 MOL      0.286431
    134 H61         7.7470   -2.5870    1.0750 h1        1 MOL      0.156719
    135 H62         9.6630   -2.5340   -0.4030 h1        1 MOL      0.049082
    136 H63         9.3620   -3.1350   -2.5960 ho        1 MOL      0.399084
    137 H64         7.8880   -4.9980   -0.8120 hc        1 MOL      0.080263
    138 H65         9.5950   -4.9680   -1.2190 hc        1 MOL      0.080263
    139 H66         9.1360   -4.8110    0.4630 hc        1 MOL      0.080263
    140 N12         6.7140   -0.2600   -0.7500 n         1 MOL     -0.074286
    141 C43         6.6150    1.2250   -1.0190 c3        1 MOL     -0.095889
    142 C44         5.6930    1.9810   -0.0570 c         1 MOL      0.466663
    143 O21         5.8680    3.1970    0.1360 o         1 MOL     -0.565692
    144 C45         5.9970    1.3450   -2.4180 c3        1 MOL     -0.117587
    145 C46         6.8910    0.7630   -3.5000 c3        1 MOL      0.013252
    146 C47         6.2490    1.2550   -4.8770 c3        1 MOL     -0.039308
    147 C48         7.0410    0.6620   -6.0550 c3        1 MOL      0.043124
    148 N13         8.4970    1.0580   -6.1510 n4        1 MOL     -0.301457
    149 H67         5.9380   -0.8120   -1.0520 hn        1 MOL      0.150509
    150 H68         7.6210    1.6430   -0.9590 h1        1 MOL      0.118630
    151 H69         5.7610    2.3960   -2.6270 hc        1 MOL      0.055536
    152 H70         5.1160    0.7020   -2.5000 hc        1 MOL      0.055536
    153 H71         7.1000   -0.3030   -3.4090 hc        1 MOL      0.003010
    154 H72         7.8740    1.2380   -3.4600 hc        1 MOL      0.003010
    155 H73         6.2190    2.3460   -4.9730 hc        1 MOL      0.056852
    156 H74         5.2030    0.9420   -4.9230 hc        1 MOL      0.056852
    157 H75         6.5490    0.9610   -6.9850 hx        1 MOL      0.070688
    158 H76         6.9650   -0.4200   -6.0480 hx        1 MOL      0.070688
    159 H77         8.9020    0.5770   -6.9390 hn        1 MOL      0.290891
    160 H78         8.4940    2.0270   -6.4250 hn        1 MOL      0.290891
    161 H79         9.0250    0.9350   -5.3060 hn        1 MOL      0.290891
    162 N14         4.8760    1.2510    0.6230 n         1 MOL     -0.036293
    163 C49         4.0220    1.8380    1.6940 c3        1 MOL     -0.299283
    164 C50         4.5680    1.5970    3.1540 c         1 MOL      0.555303
    165 O22         4.1180    2.2370    4.0680 o         1 MOL     -0.504327
    166 C51         2.5950    1.3010    1.5240 c3        1 MOL      0.244930
    167 C52         1.9230    1.8020    0.1910 c3        1 MOL     -0.134498
    168 C53         0.5760    1.1950   -0.1990 c         1 MOL      0.748104
    169 O23        -0.5110    1.8460   -0.3070 o         1 MOL     -0.728468
    170 O24         0.4890   -0.0020   -0.4400 o         1 MOL     -0.728468
    171 H80         4.7890    0.3010    0.2880 hn        1 MOL     -0.061700
    172 H81         4.0800    2.9260    1.6040 h1        1 MOL      0.126387
    173 H82         1.9380    1.6120    2.3260 hc        1 MOL      0.012184
    174 H83         2.6480    0.2140    1.5960 hc        1 MOL      0.012184
    175 H84         2.6100    1.4080   -0.5550 hc        1 MOL      0.008488
    176 H85         1.8570    2.8880    0.1390 hc        1 MOL      0.008488
    177 N15         5.4210    0.5290    3.3830 n         1 MOL     -0.354458
    178 C54         5.6750   -0.0880    4.6870 c3        1 MOL     -0.185490
    179 H86         6.4080    0.5060    5.2340 h1        1 MOL      0.096728
    180 H87         4.7460   -0.1320    5.2560 h1        1 MOL      0.096728
    181 H88         6.0620   -1.0970    4.5430 h1        1 MOL      0.096728
    182 H89         5.7510   -0.0020    2.5910 hn        1 MOL      0.252609
    183 Ca1        -1.8890   -0.3530   -1.2130 Ca        1 MOL      1.772062
    184 O25        -1.0810   -2.7690   -2.3810 oh        1 MOL     -0.871505
    185 H90        -1.9720   -3.1110   -2.4790 ho        1 MOL      0.395328
    186 H91        -0.6810   -2.9140   -3.2390 ho        1 MOL      0.395328
    187 O26        -0.6990   -0.1390   -3.5630 oh        1 MOL     -0.871505
    188 H92        -0.8330    0.7950   -3.7190 ho        1 MOL      0.395328
    189 H93        -1.0040   -0.5660   -4.3540 ho        1 MOL      0.395328
@<TRIPOS>BOND
     1    1    2 1   
     2    1    4 1   
     3    1    5 1   
     4    1    6 1   
     5    2    3 2   
     6    2    7 1   
     7    7    8 1   
     8    7   15 1   
     9    8    9 1   
    10    8   11 1   
    11    8   16 1   
    12    9   10 2   
    13    9   19 1   
    14   11   12 1   
    15   11   17 1   
    16   11   18 1   
    17   12   13 1   
    18   12   14 1   
    19   19   20 1   
    20   19   28 1   
    21   20   21 1   
    22   20   23 1   
    23   20   29 1   
    24   21   22 2   
    25   21   41 1   
    26   23   24 1   
    27   23   30 1   
    28   23   31 1   
    29   24   25 1   
    30   24   32 1   
    31   24   33 1   
    32   25   26 1   
    33   25   34 1   
    34   25   35 1   
    35   26   27 1   
    36   26   36 1   
    37   26   37 1   
    38   27   38 1   
    39   27   39 1   
    40   27   40 1   
    41   41   42 1   
    42   41   49 1   
    43   42   43 1   
    44   42   45 1   
    45   42   50 1   
    46   43   44 2   
    47   43   53 1   
    48   45   46 1   
    49   45   51 1   
    50   45   52 1   
    51   46   47 1   
    52   46   48 1   
    53   53   54 1   
    54   53   57 1   
    55   54   55 1   
    56   54   58 1   
    57   54   59 1   
    58   55   56 2   
    59   55   60 1   
    60   60   61 1   
    61   60   68 1   
    62   61   62 1   
    63   61   64 1   
    64   61   69 1   
    65   62   63 2   
    66   62   72 1   
    67   64   65 1   
    68   64   70 1   
    69   64   71 1   
    70   65   66 1   
    71   65   67 1   
    72   72   73 1   
    73   72   76 1   
    74   73   74 1   
    75   73   77 1   
    76   73   78 1   
    77   74   75 2   
    78   74   79 1   
    79   79   80 1   
    80   79   86 1   
    81   80   81 1   
    82   80   83 1   
    83   80   87 1   
    84   81   82 2   
    85   81   93 1   
    86   83   84 1   
    87   83   85 1   
    88   83   88 1   
    89   84   90 1   
    90   84   91 1   
    91   84   92 1   
    92   85   89 1   
    93   93   94 1   
    94   93  101 1   
    95   94   95 1   
    96   94   97 1   
    97   94  102 1   
    98   95   96 2   
    99   95  112 1   
   100   97   98 1   
   101   97   99 1   
   102   97  103 1   
   103   98  100 1   
   104   98  104 1   
   105   98  105 1   
   106   99  106 1   
   107   99  107 1   
   108   99  108 1   
   109  100  109 1   
   110  100  110 1   
   111  100  111 1   
   112  112  113 1   
   113  112  119 1   
   114  113  114 1   
   115  113  116 1   
   116  113  120 1   
   117  114  115 2   
   118  114  126 1   
   119  116  117 1   
   120  116  118 1   
   121  116  121 1   
   122  117  123 1   
   123  117  124 1   
   124  117  125 1   
   125  118  122 1   
   126  126  127 1   
   127  126  133 1   
   128  127  128 1   
   129  127  130 1   
   130  127  134 1   
   131  128  129 2   
   132  128  140 1   
   133  130  131 1   
   134  130  132 1   
   135  130  135 1   
   136  131  137 1   
   137  131  138 1   
   138  131  139 1   
   139  132  136 1   
   140  140  141 1   
   141  140  149 1   
   142  141  142 1   
   143  141  144 1   
   144  141  150 1   
   145  142  143 2   
   146  142  162 1   
   147  144  145 1   
   148  144  151 1   
   149  144  152 1   
   150  145  146 1   
   151  145  153 1   
   152  145  154 1   
   153  146  147 1   
   154  146  155 1   
   155  146  156 1   
   156  147  148 1   
   157  147  157 1   
   158  147  158 1   
   159  148  159 1   
   160  148  160 1   
   161  148  161 1   
   162  162  163 1   
   163  162  171 1   
   164  163  164 1   
   165  163  166 1   
   166  163  172 1   
   167  164  165 2   
   168  164  177 1   
   169  166  167 1   
   170  166  173 1   
   171  166  174 1   
   172  167  168 1   
   173  167  175 1   
   174  167  176 1   
   175  168  169 1   
   176  168  170 1   
   177  177  178 1   
   178  177  182 1   
   179  178  179 1   
   180  178  180 1   
   181  178  181 1   
   182  184  185 1   
   183  184  186 1   
   184  187  188 1   
   185  187  189 1   
@<TRIPOS>SUBSTRUCTURE
     1 MOL         1 TEMP              0 ****  ****    0 ROOT
