@<TRIPOS>MOLECULE
MOL
  175   173     1     0     0
SMALL
resp


@<TRIPOS>ATOM
      1 C1          0.2310    4.0970    5.2690 c3        1 MOL     -0.267720
      2 C2         -0.4550    3.9910    3.9300 c         1 MOL      0.773342
      3 O1          0.1470    4.2170    2.8840 o         1 MOL     -0.587039
      4 H1          1.3100    4.0480    5.1290 hc        1 MOL      0.059996
      5 H2         -0.0320    5.0450    5.7380 hc        1 MOL      0.059996
      6 H3         -0.0890    3.2740    5.9080 hc        1 MOL      0.059996
      7 N1         -1.7040    3.6250    3.8630 n         1 MOL     -0.683515
      8 C3         -2.3600    3.4450    2.6210 c3        1 MOL      0.271885
      9 C4         -2.5980    4.6900    1.7150 c         1 MOL      0.520269
     10 O2         -2.8520    5.7580    2.2930 o         1 MOL     -0.586754
     11 C5         -3.6610    2.6910    2.8060 c3        1 MOL     -0.132558
     12 C6         -4.3230    2.4250    1.5090 c         1 MOL      0.629820
     13 O3         -5.5310    2.8300    1.4110 o         1 MOL     -0.642994
     14 O4         -3.6210    1.8980    0.6050 o         1 MOL     -0.642994
     15 H4         -2.1430    3.3390    4.7180 hn        1 MOL      0.326049
     16 H5         -1.7650    2.7850    1.9790 h1        1 MOL     -0.014045
     17 H6         -4.3090    3.2480    3.4890 hc        1 MOL     -0.007178
     18 H7         -3.4810    1.7230    3.2650 hc        1 MOL     -0.007178
     19 N2         -2.6260    4.5450    0.4200 n         1 MOL     -0.286328
     20 C7         -3.0410    5.5900   -0.4750 c3        1 MOL      0.163189
     21 C8         -3.8030    4.9920   -1.6770 c         1 MOL      0.507261
     22 O5         -3.9240    5.6670   -2.7090 o         1 MOL     -0.573997
     23 C9         -1.7450    6.4480   -0.7910 c3        1 MOL     -0.292683
     24 H8         -2.2180    3.7050    0.0560 hn        1 MOL      0.266912
     25 H9         -3.7430    6.1770    0.1070 h1        1 MOL      0.031193
     26 H10        -1.3270    7.0030    0.0420 hc        1 MOL      0.074262
     27 H11        -0.9680    5.8180   -1.2410 hc        1 MOL      0.074262
     28 H12        -2.0790    7.0560   -1.6330 hc        1 MOL      0.074262
     29 N3         -4.3380    3.7900   -1.6630 n         1 MOL     -0.302441
     30 C10        -5.0890    3.1520   -2.7520 c3        1 MOL      0.094628
     31 C11        -6.2770    2.2760   -2.3950 c         1 MOL      0.414588
     32 O6         -7.1560    2.0420   -3.2140 o         1 MOL     -0.568740
     33 C12        -4.1330    2.3070   -3.6510 c3        1 MOL     -0.140063
     34 C13        -3.4250    1.2510   -2.9070 c         1 MOL      0.740917
     35 O7         -2.1530    1.1200   -3.0050 o         1 MOL     -0.745172
     36 O8         -3.9720    0.5010   -2.1030 o         1 MOL     -0.745172
     37 H13        -4.2700    3.2050   -0.8370 hn        1 MOL      0.101960
     38 H14        -5.5070    3.9480   -3.3720 h1        1 MOL      0.050262
     39 H15        -3.4040    3.0160   -4.0390 hc        1 MOL      0.044275
     40 H16        -4.6620    1.8550   -4.4940 hc        1 MOL      0.044275
     41 N4         -6.3240    1.7730   -1.1750 n         1 MOL     -0.105657
     42 C14        -7.4560    1.0440   -0.6440 c3        1 MOL     -0.160632
     43 C15        -7.3710   -0.4390   -0.9840 c         1 MOL      0.464230
     44 O9         -8.3440   -1.2000   -0.8030 o         1 MOL     -0.622099
     45 H17        -5.6030    1.8830   -0.4820 hn        1 MOL      0.120525
     46 H18        -8.4150    1.5150   -0.8500 h1        1 MOL      0.100605
     47 H19        -7.3690    1.1030    0.4450 h1        1 MOL      0.100605
     48 N5         -6.2760   -0.9810   -1.5020 n         1 MOL      0.000257
     49 C16        -6.1900   -2.3480   -2.0690 c3        1 MOL     -0.259165
     50 C17        -5.9500   -3.4130   -1.0270 c         1 MOL      0.539524
     51 O10        -6.0520   -4.6060   -1.3650 o         1 MOL     -0.558714
     52 C18        -5.0060   -2.3880   -3.0780 c3        1 MOL      0.001049
     53 C19        -3.6020   -2.4140   -2.5590 c         1 MOL      0.469004
     54 N6         -2.6490   -2.4220   -3.4020 n         1 MOL     -0.509534
     55 O11        -3.3060   -2.3170   -1.3850 o         1 MOL     -0.628831
     56 H20        -5.4610   -0.4180   -1.6970 hn        1 MOL      0.051585
     57 H21        -7.1510   -2.5380   -2.5460 h1        1 MOL      0.145945
     58 H22        -5.0700   -1.5030   -3.7140 hc        1 MOL      0.047630
     59 H23        -5.1530   -3.0810   -3.9100 hc        1 MOL      0.047630
     60 H24        -2.8570   -2.4080   -4.3900 hn        1 MOL      0.294738
     61 H25        -1.7070   -2.4470   -3.0390 hn        1 MOL      0.294738
     62 N7         -5.7570   -3.0110    0.2290 n         1 MOL     -0.166709
     63 C20        -5.8040   -3.8530    1.4420 c3        1 MOL     -0.204751
     64 C21        -4.4980   -4.5710    1.7120 c         1 MOL      0.519208
     65 O12        -4.4450   -5.4820    2.5700 o         1 MOL     -0.592862
     66 H26        -5.6690   -2.0230    0.4350 hn        1 MOL      0.175961
     67 H27        -6.6260   -4.5560    1.3160 h1        1 MOL      0.100492
     68 H28        -5.9930   -3.2700    2.3400 h1        1 MOL      0.100492
     69 N8         -3.4050   -4.0860    1.1270 n         1 MOL     -0.237717
     70 C22        -1.9930   -4.6620    1.2310 c3        1 MOL     -0.056930
     71 C23        -1.0930   -3.4830    1.4470 c         1 MOL      0.350876
     72 O13        -1.2600   -2.5070    0.7100 o         1 MOL     -0.279653
     73 C24        -1.5520   -5.4790    0.0110 c3        1 MOL      0.409886
     74 C25        -2.1080   -6.8890    0.0390 c3        1 MOL     -0.504410
     75 O14        -1.8450   -4.8640   -1.2190 oh        1 MOL     -0.517742
     76 H29        -3.4450   -3.2960    0.5090 hn        1 MOL      0.216242
     77 H30        -1.9040   -5.3750    2.0530 h1        1 MOL      0.070535
     78 H31        -0.4790   -5.6120   -0.0310 h1        1 MOL      0.008078
     79 H32        -1.5790   -3.9440   -1.2080 ho        1 MOL      0.265271
     80 H33        -1.7060   -7.3350    0.9520 hc        1 MOL      0.128928
     81 H34        -3.1970   -6.8840    0.1170 hc        1 MOL      0.128928
     82 H35        -1.9020   -7.4280   -0.8790 hc        1 MOL      0.128928
     83 N9         -0.1190   -3.6170    2.3890 n         1 MOL     -0.436572
     84 C26         1.1300   -2.7880    2.4120 c3        1 MOL     -0.415992
     85 C27         1.9310   -3.1040    1.1710 c         1 MOL      0.640000
     86 O15         2.5030   -4.1490    1.0940 o         1 MOL     -0.574980
     87 C28         1.9690   -2.9880    3.7520 c3        1 MOL      0.290893
     88 C29         1.1330   -2.5330    4.9730 c3        1 MOL      0.160951
     89 C30         3.3030   -2.2170    3.7520 c3        1 MOL     -0.375198
     90 C31         1.7510   -2.8010    6.3380 c3        1 MOL     -0.228748
     91 H36         0.0070   -4.4810    2.8990 hn        1 MOL      0.329527
     92 H37         0.8830   -1.7200    2.3910 h1        1 MOL      0.143348
     93 H38         2.1300   -4.0450    3.9690 hc        1 MOL     -0.012157
     94 H39         0.2220   -3.1410    4.9330 hc        1 MOL     -0.030149
     95 H40         0.9080   -1.4790    4.8430 hc        1 MOL     -0.030149
     96 H41         4.0180   -2.6640    3.0620 hc        1 MOL      0.090514
     97 H42         2.9750   -1.1890    3.5600 hc        1 MOL      0.090514
     98 H43         3.7800   -2.2210    4.7310 hc        1 MOL      0.090514
     99 H44         2.2910   -3.7480    6.2370 hc        1 MOL      0.043276
    100 H45         2.2920   -1.9900    6.8380 hc        1 MOL      0.043276
    101 H46         0.8800   -2.9710    6.9640 hc        1 MOL      0.043276
    102 N10         2.0140   -2.2050    0.1540 n         1 MOL     -0.352410
    103 C32         2.9120   -2.2250   -1.0350 c3        1 MOL      0.045228
    104 C33         4.2750   -1.5250   -0.7800 c         1 MOL      0.681260
    105 O16         4.3900   -0.6520    0.1350 o         1 MOL     -0.556780
    106 C34         2.1950   -1.4930   -2.2070 c3        1 MOL     -0.277829
    107 C35         0.6780   -1.7410   -2.2550 c         1 MOL      0.770311
    108 O17         0.1770   -2.5890   -3.0000 o         1 MOL     -0.682268
    109 O18        -0.0590   -1.0080   -1.6120 o         1 MOL     -0.682268
    110 H47         1.3710   -1.4260    0.2370 hn        1 MOL      0.285425
    111 H48         3.2840   -3.1930   -1.3710 h1        1 MOL      0.063816
    112 H49         2.5670   -1.8540   -3.1600 hc        1 MOL      0.069504
    113 H50         2.3470   -0.4270   -2.0610 hc        1 MOL      0.069504
    114 N11         5.3550   -1.9220   -1.4960 n         1 MOL     -0.803462
    115 C36         6.7080   -1.3320   -1.2690 c3        1 MOL      0.452943
    116 C37         6.7690    0.1850   -1.2080 c         1 MOL      0.288046
    117 O19         7.4700    0.6880   -0.3430 o         1 MOL     -0.474402
    118 C38         7.8100   -1.8770   -2.1860 c3        1 MOL     -0.182870
    119 C39         9.2810   -1.4690   -1.9690 ca        1 MOL      0.107970
    120 C40        10.1260   -1.4510   -3.0830 ca        1 MOL     -0.172331
    121 C41         9.8080   -1.1310   -0.7110 ca        1 MOL     -0.172331
    122 C42        11.4470   -0.9730   -3.0290 ca        1 MOL     -0.066535
    123 C43        11.1380   -0.6580   -0.6210 ca        1 MOL     -0.066535
    124 C44        11.9490   -0.6020   -1.7780 ca        1 MOL     -0.184968
    125 H51         5.3030   -2.6490   -2.1850 hn        1 MOL      0.374012
    126 H52         7.0090   -1.5630   -0.2450 h1        1 MOL      0.037880
    127 H53         7.5460   -1.5990   -3.2050 hc        1 MOL      0.042658
    128 H54         7.7610   -2.9670   -2.1600 hc        1 MOL      0.042658
    129 H55         9.8300   -1.8190   -4.0540 ha        1 MOL      0.106818
    130 H56         9.2350   -1.1590    0.1990 ha        1 MOL      0.106818
    131 H57        12.0620   -0.8650   -3.9120 ha        1 MOL      0.101497
    132 H58        11.6190   -0.5040    0.3290 ha        1 MOL      0.101497
    133 H59        12.9760   -0.2950   -1.6330 ha        1 MOL      0.111456
    134 N12         6.0640    1.0070   -1.9740 n         1 MOL     -0.027734
    135 C45         6.1370    2.4760   -1.6630 c3        1 MOL     -0.018291
    136 C46         5.3950    2.9110   -0.3550 c         1 MOL      0.399976
    137 O20         5.8160    3.9190    0.1950 o         1 MOL     -0.509657
    138 C47         5.5170    3.1020   -2.9660 c3        1 MOL     -0.179436
    139 C48         4.7640    2.0120   -3.7240 c3        1 MOL      0.047960
    140 C49         5.3000    0.7010   -3.1350 c3        1 MOL     -0.061325
    141 H60         7.1500    2.8500   -1.5720 h1        1 MOL      0.084554
    142 H61         4.8250    3.9370   -2.8700 hc        1 MOL      0.067284
    143 H62         6.4060    3.4360   -3.5100 hc        1 MOL      0.067284
    144 H63         3.6770    2.0660   -3.6320 hc        1 MOL      0.023606
    145 H64         4.9460    2.1670   -4.7830 hc        1 MOL      0.023606
    146 H65         4.4380    0.0320   -3.0810 h1        1 MOL      0.020963
    147 H66         6.0020    0.3790   -3.9080 h1        1 MOL      0.020963
    148 N13         4.3530    2.2060    0.1440 n         1 MOL     -0.199730
    149 C50         3.7210    2.5340    1.4450 c3        1 MOL     -0.289077
    150 C51         4.5740    2.1320    2.6050 c         1 MOL      0.632372
    151 O21         4.7120    2.9190    3.5420 o         1 MOL     -0.567302
    152 C52         2.2880    1.9690    1.4570 c3        1 MOL      0.084616
    153 C53         1.3960    2.4060    0.2140 c3        1 MOL      0.042737
    154 C54         0.0210    1.6830    0.2450 c         1 MOL      0.329519
    155 O22        -0.8500    2.1240   -0.5230 o         1 MOL     -0.610033
    156 O23        -0.2370    0.7540    1.0470 o         1 MOL     -0.610033
    157 H67         4.0240    1.3400   -0.2600 hn        1 MOL      0.246424
    158 H68         3.6360    3.6160    1.3830 h1        1 MOL      0.149800
    159 H69         1.8120    2.3670    2.3550 hc        1 MOL     -0.018932
    160 H70         2.3370    0.8860    1.4660 hc        1 MOL     -0.018932
    161 H71         1.9680    2.1690   -0.6770 hc        1 MOL      0.038327
    162 H72         1.1770    3.4680    0.1420 hc        1 MOL      0.038327
    163 N14         5.1300    0.9010    2.5910 n         1 MOL     -0.287980
    164 C55         6.2200    0.4760    3.5200 c3        1 MOL     -0.134194
    165 H73         6.1630    1.0600    4.4390 h1        1 MOL      0.070928
    166 H74         6.1060   -0.5820    3.7550 h1        1 MOL      0.070928
    167 H75         7.1870    0.6410    3.0450 h1        1 MOL      0.070928
    168 H76         4.9480    0.3290    1.7780 hn        1 MOL      0.222853
    169 Ca1        -2.1910   -0.0750   -0.4290 Ca        1 MOL      1.749169
    170 O24        -1.8900   -0.2970    2.8250 oh        1 MOL     -0.826722
    171 H77        -1.9010    0.1560    3.6630 ho        1 MOL      0.400751
    172 H78        -1.2200    0.1660    2.3120 ho        1 MOL      0.400751
    173 O25        -4.2840   -1.1280    1.8050 oh        1 MOL     -0.826722
    174 H79        -5.1100   -1.0460    2.2790 ho        1 MOL      0.400751
    175 H80        -3.6230   -0.7860    2.4130 ho        1 MOL      0.400751
@<TRIPOS>BOND
     1    1    2 1   
     2    1    4 1   
     3    1    5 1   
     4    1    6 1   
     5    2    3 2   
     6    2    7 1   
     7    7    8 1   
     8    7   15 1   
     9    8    9 1   
    10    8   11 1   
    11    8   16 1   
    12    9   10 2   
    13    9   19 1   
    14   11   12 1   
    15   11   17 1   
    16   11   18 1   
    17   12   13 1   
    18   12   14 1   
    19   19   20 1   
    20   19   24 1   
    21   20   21 1   
    22   20   23 1   
    23   20   25 1   
    24   21   22 2   
    25   21   29 1   
    26   23   26 1   
    27   23   27 1   
    28   23   28 1   
    29   29   30 1   
    30   29   37 1   
    31   30   31 1   
    32   30   33 1   
    33   30   38 1   
    34   31   32 2   
    35   31   41 1   
    36   33   34 1   
    37   33   39 1   
    38   33   40 1   
    39   34   35 1   
    40   34   36 1   
    41   41   42 1   
    42   41   45 1   
    43   42   43 1   
    44   42   46 1   
    45   42   47 1   
    46   43   44 2   
    47   43   48 1   
    48   48   49 1   
    49   48   56 1   
    50   49   50 1   
    51   49   52 1   
    52   49   57 1   
    53   50   51 2   
    54   50   62 1   
    55   52   53 1   
    56   52   58 1   
    57   52   59 1   
    58   53   54 1   
    59   53   55 2   
    60   54   60 1   
    61   54   61 1   
    62   62   63 1   
    63   62   66 1   
    64   63   64 1   
    65   63   67 1   
    66   63   68 1   
    67   64   65 2   
    68   64   69 1   
    69   69   70 1   
    70   69   76 1   
    71   70   71 1   
    72   70   73 1   
    73   70   77 1   
    74   71   72 2   
    75   71   83 1   
    76   73   74 1   
    77   73   75 1   
    78   73   78 1   
    79   74   80 1   
    80   74   81 1   
    81   74   82 1   
    82   75   79 1   
    83   83   84 1   
    84   83   91 1   
    85   84   85 1   
    86   84   87 1   
    87   84   92 1   
    88   85   86 2   
    89   85  102 1   
    90   87   88 1   
    91   87   89 1   
    92   87   93 1   
    93   88   90 1   
    94   88   94 1   
    95   88   95 1   
    96   89   96 1   
    97   89   97 1   
    98   89   98 1   
    99   90   99 1   
   100   90  100 1   
   101   90  101 1   
   102  102  103 1   
   103  102  110 1   
   104  103  104 1   
   105  103  106 1   
   106  103  111 1   
   107  104  105 2   
   108  104  114 1   
   109  106  107 1   
   110  106  112 1   
   111  106  113 1   
   112  107  108 1   
   113  107  109 1   
   114  114  115 1   
   115  114  125 1   
   116  115  116 1   
   117  115  118 1   
   118  115  126 1   
   119  116  117 2   
   120  116  134 1   
   121  118  119 1   
   122  118  127 1   
   123  118  128 1   
   124  119  120 ar  
   125  119  121 ar  
   126  120  122 ar  
   127  120  129 1   
   128  121  123 ar  
   129  121  130 1   
   130  122  124 ar  
   131  122  131 1   
   132  123  124 ar  
   133  123  132 1   
   134  124  133 1   
   135  134  135 1   
   136  134  140 1   
   137  135  136 1   
   138  135  138 1   
   139  135  141 1   
   140  136  137 2   
   141  136  148 1   
   142  138  139 1   
   143  138  142 1   
   144  138  143 1   
   145  139  140 1   
   146  139  144 1   
   147  139  145 1   
   148  140  146 1   
   149  140  147 1   
   150  148  149 1   
   151  148  157 1   
   152  149  150 1   
   153  149  152 1   
   154  149  158 1   
   155  150  151 2   
   156  150  163 1   
   157  152  153 1   
   158  152  159 1   
   159  152  160 1   
   160  153  154 1   
   161  153  161 1   
   162  153  162 1   
   163  154  155 1   
   164  154  156 1   
   165  163  164 1   
   166  163  168 1   
   167  164  165 1   
   168  164  166 1   
   169  164  167 1   
   170  170  171 1   
   171  170  172 1   
   172  173  174 1   
   173  173  175 1   
@<TRIPOS>SUBSTRUCTURE
     1 MOL         1 TEMP              0 ****  ****    0 ROOT
