@<TRIPOS>MOLECULE
MOL
  189   185     1     0     0
SMALL
resp


@<TRIPOS>ATOM
      1 C1         -1.2900    1.1680    6.7970 c3        1 MOL     -0.297090
      2 C2         -1.2470    1.1610    5.2700 c         1 MOL      0.763269
      3 O1         -0.1680    1.4360    4.6890 o         1 MOL     -0.636273
      4 H1         -0.2770    1.2660    7.1870 hc        1 MOL      0.071648
      5 H2         -1.8940    2.0070    7.1410 hc        1 MOL      0.071648
      6 H3         -1.7260    0.2350    7.1530 hc        1 MOL      0.071648
      7 N1         -2.3720    0.9290    4.6320 n         1 MOL     -0.569959
      8 C3         -2.4950    1.0000    3.1930 c3        1 MOL     -0.017416
      9 C4         -2.7020    2.4520    2.7880 c         1 MOL      0.487751
     10 O2         -3.7720    3.0460    3.0590 o         1 MOL     -0.504843
     11 C5         -3.7810    0.2510    2.7510 c3        1 MOL     -0.243538
     12 C6         -4.1190    0.3710    1.2750 c         1 MOL      0.779886
     13 O3         -5.2550   -0.0710    0.9580 o         1 MOL     -0.667005
     14 O4         -3.2820    0.7800    0.4810 o         1 MOL     -0.667005
     15 H4         -3.2290    0.7810    5.1280 hn        1 MOL      0.337768
     16 H5         -1.6580    0.5760    2.6370 h1        1 MOL      0.092738
     17 H6         -4.6090    0.7350    3.2710 hc        1 MOL      0.065413
     18 H7         -3.7220   -0.7850    3.0880 hc        1 MOL      0.065413
     19 N2         -1.7000    3.0240    2.1410 n         1 MOL     -0.204146
     20 C7         -1.6690    4.4880    1.8860 c3        1 MOL     -0.156087
     21 C8         -2.8260    4.9400    0.9420 c         1 MOL      0.459163
     22 O5         -3.4450    5.9580    1.2590 o         1 MOL     -0.537682
     23 C9         -0.2970    4.7640    1.2980 c3        1 MOL      0.052622
     24 C10        -0.0780    6.3030    0.9780 c3        1 MOL      0.052506
     25 C11         1.2920    6.6170    0.3060 c3        1 MOL     -0.106618
     26 C12         1.3260    6.1310   -1.1910 c3        1 MOL      0.134080
     27 N3          2.6300    6.4690   -1.8180 n4        1 MOL     -0.399863
     28 H8         -0.8950    2.4950    1.8420 hn        1 MOL      0.190105
     29 H9         -1.8760    5.0030    2.8210 h1        1 MOL      0.118764
     30 H10        -0.3370    4.3010    0.3090 hc        1 MOL      0.022390
     31 H11         0.5370    4.4170    1.9080 hc        1 MOL      0.022390
     32 H12        -0.2130    6.9100    1.8670 hc        1 MOL      0.016906
     33 H13        -0.8530    6.5190    0.2470 hc        1 MOL      0.016906
     34 H14         2.1560    6.3580    0.9060 hc        1 MOL      0.042223
     35 H15         1.2690    7.7050    0.1700 hc        1 MOL      0.042223
     36 H16         0.5200    6.6610   -1.7020 hx        1 MOL      0.048521
     37 H17         1.0600    5.0840   -1.2920 hx        1 MOL      0.048521
     38 H18         2.8400    7.4410   -1.9670 hn        1 MOL      0.330465
     39 H19         3.3900    6.0980   -1.2550 hn        1 MOL      0.330465
     40 H20         2.7140    6.0670   -2.7420 hn        1 MOL      0.330465
     41 N4         -2.9530    4.2300   -0.1690 n         1 MOL     -0.320266
     42 C13        -3.7010    4.6110   -1.3960 c3        1 MOL      0.302993
     43 C14        -4.9900    3.7830   -1.4790 c         1 MOL      0.240754
     44 O6         -5.8190    4.0900   -2.3710 o         1 MOL     -0.505758
     45 C15        -2.8880    4.4950   -2.6640 c3        1 MOL     -0.327209
     46 C16        -2.3450    3.0830   -2.9530 c         1 MOL      0.873286
     47 O7         -2.8370    2.0720   -2.3640 o         1 MOL     -0.733828
     48 O8         -1.3330    2.9890   -3.7020 o         1 MOL     -0.733828
     49 H21        -2.4910    3.3260   -0.1740 hn        1 MOL      0.102474
     50 H22        -4.0050    5.6520   -1.3410 h1        1 MOL      0.037547
     51 H23        -2.1230    5.2640   -2.6680 hc        1 MOL      0.063775
     52 H24        -3.6290    4.7620   -3.4150 hc        1 MOL      0.063775
     53 N5         -5.1860    2.7390   -0.6750 n         1 MOL      0.064866
     54 C17        -6.5750    2.2730   -0.3830 c3        1 MOL     -0.284334
     55 C18        -7.0630    1.1410   -1.3470 c         1 MOL      0.631817
     56 O9         -8.1340    1.2190   -1.9380 o         1 MOL     -0.586468
     57 H25        -4.4130    2.3400   -0.1440 hn        1 MOL      0.095138
     58 H26        -7.2580    3.1200   -0.4810 h1        1 MOL      0.119310
     59 H27        -6.6190    1.9650    0.6660 h1        1 MOL      0.119310
     60 N6         -6.3360    0.0570   -1.5220 n         1 MOL     -0.254147
     61 C19        -6.6260   -1.0660   -2.3940 c3        1 MOL      0.046167
     62 C20        -6.8680   -2.4320   -1.6840 c         1 MOL      0.318125
     63 O10        -7.0440   -3.4890   -2.3040 o         1 MOL     -0.492411
     64 C21        -5.5530   -1.1920   -3.5340 c3        1 MOL     -0.252367
     65 C22        -4.0880   -1.2180   -3.0850 c         1 MOL      0.717712
     66 O11        -3.2090   -0.4920   -3.6050 o         1 MOL     -0.660444
     67 O12        -3.8330   -1.7790   -2.0000 o         1 MOL     -0.660444
     68 H28        -5.5270    0.0590   -0.9210 hn        1 MOL      0.108676
     69 H29        -7.5960   -0.8780   -2.8530 h1        1 MOL      0.116619
     70 H30        -5.7510   -0.2490   -4.0450 hc        1 MOL      0.078975
     71 H31        -5.7810   -1.9580   -4.2670 hc        1 MOL      0.078975
     72 N7         -6.7460   -2.4380   -0.3480 n         1 MOL     -0.163358
     73 C23        -6.9420   -3.6590    0.4320 c3        1 MOL     -0.203644
     74 C24        -5.6240   -4.4370    0.4530 c         1 MOL      0.563019
     75 O13        -5.5650   -5.6080    0.8280 o         1 MOL     -0.583696
     76 H32        -6.5990   -1.5870    0.1680 hn        1 MOL      0.209786
     77 H33        -7.7220   -4.2980    0.0180 h1        1 MOL      0.117565
     78 H34        -7.1900   -3.3400    1.4380 h1        1 MOL      0.117565
     79 N8         -4.4630   -3.8760    0.0140 n         1 MOL     -0.265921
     80 C25        -3.1960   -4.4810    0.0720 c3        1 MOL     -0.081221
     81 C26        -2.0690   -3.5270    0.4720 c         1 MOL      0.594479
     82 O14        -2.1700   -2.3010    0.3060 o         1 MOL     -0.686374
     83 C27        -2.8390   -5.0490   -1.3500 c3        1 MOL      0.469689
     84 C28        -3.5540   -6.3850   -1.5660 c3        1 MOL     -0.372000
     85 O15        -3.1120   -4.1100   -2.3670 oh        1 MOL     -0.658163
     86 H35        -4.6120   -2.9990   -0.4810 hn        1 MOL      0.178207
     87 H36        -3.2140   -5.3160    0.7810 h1        1 MOL      0.082309
     88 H37        -1.7880   -5.3400   -1.3120 h1        1 MOL     -0.053211
     89 H38        -3.4860   -3.3550   -1.9160 ho        1 MOL      0.489194
     90 H39        -4.6290   -6.3430   -1.4120 hc        1 MOL      0.089675
     91 H40        -3.4670   -6.6790   -2.6050 hc        1 MOL      0.089675
     92 H41        -3.0850   -7.2050   -1.0160 hc        1 MOL      0.089675
     93 N9         -0.9640   -4.0800    1.0580 n         1 MOL     -0.616935
     94 C29         0.3080   -3.3400    1.3950 c3        1 MOL      0.164964
     95 C30         1.5740   -3.8070    0.5820 c         1 MOL      0.402695
     96 O16         1.7900   -5.0440    0.4220 o         1 MOL     -0.541132
     97 C31         0.4520   -3.3660    2.9400 c3        1 MOL     -0.010665
     98 C32        -0.7880   -2.8290    3.7260 c3        1 MOL      0.220194
     99 C33         1.6150   -2.4210    3.3380 c3        1 MOL     -0.231456
    100 C34        -0.5590   -2.9220    5.2090 c3        1 MOL     -0.398901
    101 H42        -0.9970   -5.0780    1.1270 hn        1 MOL      0.303647
    102 H43         0.1260   -2.3400    0.9960 h1        1 MOL      0.139012
    103 H44         0.7050   -4.3930    3.2100 hc        1 MOL      0.019608
    104 H45        -1.6680   -3.4290    3.5060 hc        1 MOL      0.004375
    105 H46        -0.8540   -1.7790    3.4370 hc        1 MOL      0.004375
    106 H47         2.5650   -2.6520    2.8500 hc        1 MOL      0.051813
    107 H48         1.2170   -1.4360    3.0780 hc        1 MOL      0.051813
    108 H49         1.8730   -2.4670    4.4020 hc        1 MOL      0.051813
    109 H50         0.0370   -2.0640    5.5210 hc        1 MOL      0.090766
    110 H51        -1.5800   -2.8450    5.5620 hc        1 MOL      0.090766
    111 H52        -0.1290   -3.8830    5.4990 hc        1 MOL      0.090766
    112 N10         2.3170   -2.8800    0.0140 n         1 MOL     -0.011635
    113 C35         3.5720   -3.0340   -0.7950 c3        1 MOL     -0.130580
    114 C36         4.7970   -2.4330    0.0060 c         1 MOL      0.241764
    115 O17         4.6150   -1.5820    0.8700 o         1 MOL     -0.111978
    116 C37         3.5530   -2.2590   -2.1240 c3        1 MOL      0.505261
    117 C38         2.3490   -2.7210   -2.9720 c3        1 MOL     -0.524031
    118 O18         3.5270   -0.8900   -1.8360 oh        1 MOL     -0.602533
    119 H53         1.9720   -1.9340   -0.0900 hn        1 MOL     -0.076208
    120 H54         3.6770   -4.1080   -0.9450 h1        1 MOL      0.080556
    121 H55         4.4340   -2.5220   -2.7200 h1        1 MOL     -0.014540
    122 H56         2.8870   -0.6920   -1.1520 ho        1 MOL      0.349655
    123 H57         2.1620   -3.7920   -2.9060 hc        1 MOL      0.142052
    124 H58         1.4490   -2.1340   -2.8190 hc        1 MOL      0.142052
    125 H59         2.5690   -2.4730   -4.0070 hc        1 MOL      0.142052
    126 N11         6.0240   -2.6950   -0.3350 n         1 MOL     -0.303031
    127 C39         7.2660   -2.1870    0.1790 c3        1 MOL      0.014935
    128 C40         7.2790   -0.6390    0.3490 c         1 MOL      0.107888
    129 O19         7.8380   -0.1250    1.3430 o         1 MOL     -0.472455
    130 C41         8.4350   -2.3470   -0.8420 c3        1 MOL      0.222370
    131 C42         8.9290   -3.8100   -0.7350 c3        1 MOL     -0.511506
    132 O20         7.9890   -2.0070   -2.1460 oh        1 MOL     -0.577858
    133 H60         6.1510   -3.4030   -1.0490 hn        1 MOL      0.271763
    134 H61         7.5430   -2.5570    1.1700 h1        1 MOL      0.131155
    135 H62         9.2610   -1.7020   -0.5590 h1        1 MOL      0.071754
    136 H63         8.7450   -1.5940   -2.5760 ho        1 MOL      0.360534
    137 H64         8.2120   -4.5530   -1.0990 hc        1 MOL      0.150085
    138 H65         9.8800   -3.8840   -1.2580 hc        1 MOL      0.150085
    139 H66         9.1400   -4.0780    0.3000 hc        1 MOL      0.150085
    140 N12         6.5590    0.0830   -0.5180 n         1 MOL      0.120539
    141 C43         6.4030    1.5760   -0.4430 c3        1 MOL     -0.076732
    142 C44         5.4720    1.9840    0.7240 c         1 MOL      0.408226
    143 O21         5.5050    3.1750    1.0830 o         1 MOL     -0.558407
    144 C45         5.8380    2.0760   -1.8010 c3        1 MOL     -0.332892
    145 C46         6.4690    1.4030   -3.0240 c3        1 MOL      0.179760
    146 C47         7.9990    1.5510   -3.2550 c3        1 MOL      0.027418
    147 C48         8.4300    0.7930   -4.5590 c3        1 MOL     -0.002503
    148 N13         9.8900    0.9890   -4.6360 n4        1 MOL     -0.238171
    149 H67         6.1480   -0.4750   -1.2550 hn        1 MOL      0.160122
    150 H68         7.3660    2.0600   -0.2920 h1        1 MOL      0.101911
    151 H69         6.0500    3.1400   -1.8820 hc        1 MOL      0.125944
    152 H70         4.7720    1.8840   -1.8730 hc        1 MOL      0.125944
    153 H71         6.0020    1.9050   -3.8720 hc        1 MOL     -0.025281
    154 H72         6.2060    0.3540   -3.1660 hc        1 MOL     -0.025281
    155 H73         8.4890    1.0690   -2.4090 hc        1 MOL     -0.011369
    156 H74         8.1260    2.6270   -3.2370 hc        1 MOL     -0.011369
    157 H75         7.9010    1.1080   -5.4480 hx        1 MOL      0.086389
    158 H76         8.2330   -0.2670   -4.3510 hx        1 MOL      0.086389
    159 H77        10.4440    0.5000   -3.9460 hn        1 MOL      0.258759
    160 H78        10.2140    0.7410   -5.5550 hn        1 MOL      0.258759
    161 H79        10.1540    1.9600   -4.5250 hn        1 MOL      0.258759
    162 N14         4.7210    1.0470    1.3030 n         1 MOL     -0.006467
    163 C49         3.7210    1.2940    2.3470 c3        1 MOL     -0.043106
    164 C50         4.0590    0.6140    3.6790 c         1 MOL      0.368001
    165 O22         3.9430    1.2590    4.7490 o         1 MOL     -0.504333
    166 C51         2.4120    0.7100    1.8540 c3        1 MOL      0.053680
    167 C52         1.9310    1.3880    0.6170 c3        1 MOL      0.240094
    168 C53         0.6730    0.7090    0.1170 c         1 MOL      0.474282
    169 O23         0.7360   -0.4110   -0.4050 o         1 MOL     -0.643122
    170 O24        -0.3900    1.2700    0.2830 o         1 MOL     -0.643122
    171 H80         4.6750    0.1270    0.8960 hn        1 MOL     -0.150893
    172 H81         3.7230    2.3680    2.5350 h1        1 MOL      0.078464
    173 H82         1.7930    0.8390    2.7400 hc        1 MOL      0.064508
    174 H83         2.5750   -0.3400    1.6440 hc        1 MOL      0.064508
    175 H84         2.7160    1.4500   -0.1390 hc        1 MOL     -0.088162
    176 H85         1.7340    2.4450    0.8200 hc        1 MOL     -0.088162
    177 N15         4.4260   -0.6890    3.6780 n         1 MOL     -0.098955
    178 C54         4.6810   -1.5990    4.8300 c3        1 MOL     -0.262677
    179 H86         4.7420   -2.6270    4.4740 h1        1 MOL      0.113340
    180 H87         5.6210   -1.3250    5.3090 h1        1 MOL      0.113340
    181 H88         3.8680   -1.5120    5.5510 h1        1 MOL      0.113340
    182 H89         4.5230   -1.0440    2.7420 hn        1 MOL      0.084180
    183 Ca1        -1.7710   -0.1280   -1.3250 Ca        1 MOL      1.785684
    184 O25        -0.0520    0.8530   -3.3100 oh        1 MOL     -0.876130
    185 H90        -0.5450    1.6630   -3.4410 ho        1 MOL      0.393827
    186 H91         0.6570    0.9030   -3.9490 ho        1 MOL      0.393827
    187 O26        -1.0030   -2.3170   -2.7340 oh        1 MOL     -0.876130
    188 H92        -1.4710   -3.1480   -2.7290 ho        1 MOL      0.393827
    189 H93        -0.3460   -2.4210   -3.4320 ho        1 MOL      0.393827
@<TRIPOS>BOND
     1    1    2 1   
     2    1    4 1   
     3    1    5 1   
     4    1    6 1   
     5    2    3 2   
     6    2    7 1   
     7    7    8 1   
     8    7   15 1   
     9    8    9 1   
    10    8   11 1   
    11    8   16 1   
    12    9   10 2   
    13    9   19 1   
    14   11   12 1   
    15   11   17 1   
    16   11   18 1   
    17   12   13 1   
    18   12   14 1   
    19   19   20 1   
    20   19   28 1   
    21   20   21 1   
    22   20   23 1   
    23   20   29 1   
    24   21   22 2   
    25   21   41 1   
    26   23   24 1   
    27   23   30 1   
    28   23   31 1   
    29   24   25 1   
    30   24   32 1   
    31   24   33 1   
    32   25   26 1   
    33   25   34 1   
    34   25   35 1   
    35   26   27 1   
    36   26   36 1   
    37   26   37 1   
    38   27   38 1   
    39   27   39 1   
    40   27   40 1   
    41   41   42 1   
    42   41   49 1   
    43   42   43 1   
    44   42   45 1   
    45   42   50 1   
    46   43   44 2   
    47   43   53 1   
    48   45   46 1   
    49   45   51 1   
    50   45   52 1   
    51   46   47 1   
    52   46   48 1   
    53   53   54 1   
    54   53   57 1   
    55   54   55 1   
    56   54   58 1   
    57   54   59 1   
    58   55   56 2   
    59   55   60 1   
    60   60   61 1   
    61   60   68 1   
    62   61   62 1   
    63   61   64 1   
    64   61   69 1   
    65   62   63 2   
    66   62   72 1   
    67   64   65 1   
    68   64   70 1   
    69   64   71 1   
    70   65   66 1   
    71   65   67 1   
    72   72   73 1   
    73   72   76 1   
    74   73   74 1   
    75   73   77 1   
    76   73   78 1   
    77   74   75 2   
    78   74   79 1   
    79   79   80 1   
    80   79   86 1   
    81   80   81 1   
    82   80   83 1   
    83   80   87 1   
    84   81   82 2   
    85   81   93 1   
    86   83   84 1   
    87   83   85 1   
    88   83   88 1   
    89   84   90 1   
    90   84   91 1   
    91   84   92 1   
    92   85   89 1   
    93   93   94 1   
    94   93  101 1   
    95   94   95 1   
    96   94   97 1   
    97   94  102 1   
    98   95   96 2   
    99   95  112 1   
   100   97   98 1   
   101   97   99 1   
   102   97  103 1   
   103   98  100 1   
   104   98  104 1   
   105   98  105 1   
   106   99  106 1   
   107   99  107 1   
   108   99  108 1   
   109  100  109 1   
   110  100  110 1   
   111  100  111 1   
   112  112  113 1   
   113  112  119 1   
   114  113  114 1   
   115  113  116 1   
   116  113  120 1   
   117  114  115 2   
   118  114  126 1   
   119  116  117 1   
   120  116  118 1   
   121  116  121 1   
   122  117  123 1   
   123  117  124 1   
   124  117  125 1   
   125  118  122 1   
   126  126  127 1   
   127  126  133 1   
   128  127  128 1   
   129  127  130 1   
   130  127  134 1   
   131  128  129 2   
   132  128  140 1   
   133  130  131 1   
   134  130  132 1   
   135  130  135 1   
   136  131  137 1   
   137  131  138 1   
   138  131  139 1   
   139  132  136 1   
   140  140  141 1   
   141  140  149 1   
   142  141  142 1   
   143  141  144 1   
   144  141  150 1   
   145  142  143 2   
   146  142  162 1   
   147  144  145 1   
   148  144  151 1   
   149  144  152 1   
   150  145  146 1   
   151  145  153 1   
   152  145  154 1   
   153  146  147 1   
   154  146  155 1   
   155  146  156 1   
   156  147  148 1   
   157  147  157 1   
   158  147  158 1   
   159  148  159 1   
   160  148  160 1   
   161  148  161 1   
   162  162  163 1   
   163  162  171 1   
   164  163  164 1   
   165  163  166 1   
   166  163  172 1   
   167  164  165 2   
   168  164  177 1   
   169  166  167 1   
   170  166  173 1   
   171  166  174 1   
   172  167  168 1   
   173  167  175 1   
   174  167  176 1   
   175  168  169 1   
   176  168  170 1   
   177  177  178 1   
   178  177  182 1   
   179  178  179 1   
   180  178  180 1   
   181  178  181 1   
   182  184  185 1   
   183  184  186 1   
   184  187  188 1   
   185  187  189 1   
@<TRIPOS>SUBSTRUCTURE
     1 MOL         1 TEMP              0 ****  ****    0 ROOT
