@<TRIPOS>MOLECULE
MOL
  172   171     1     0     0
SMALL
resp


@<TRIPOS>ATOM
      1 C1          0.0880    2.7470    5.9680 c3        1 MOL     -0.406576
      2 C2         -0.2510    2.6940    4.4600 c         1 MOL      0.704433
      3 O1          0.5330    3.3080    3.7120 o         1 MOL     -0.559281
      4 H1          0.9870    2.1610    6.1590 hc        1 MOL      0.095943
      5 H2          0.2580    3.7820    6.2670 hc        1 MOL      0.095943
      6 H3         -0.7430    2.3340    6.5420 hc        1 MOL      0.095943
      7 N1         -1.3500    2.0140    4.1360 n         1 MOL     -0.582417
      8 C3         -1.9980    1.9580    2.7920 c3        1 MOL      0.129053
      9 C4         -2.2860    3.4140    2.3700 c         1 MOL      0.657004
     10 O2         -2.9230    4.0860    3.1800 o         1 MOL     -0.622626
     11 C5         -3.2730    1.0380    2.8250 c3        1 MOL     -0.007554
     12 C6         -3.7350    0.5870    1.4620 c         1 MOL      0.486495
     13 O3         -3.3620    1.2830    0.5030 o         1 MOL     -0.591392
     14 O4         -4.5210   -0.3780    1.3560 o         1 MOL     -0.591392
     15 H4         -1.8230    1.4420    4.8130 hn        1 MOL      0.309012
     16 H5         -1.3540    1.5210    2.0350 h1        1 MOL      0.018135
     17 H6         -4.0350    1.3950    3.5180 hc        1 MOL      0.002402
     18 H7         -2.9710    0.1040    3.2860 hc        1 MOL      0.002402
     19 N2         -1.8100    3.8610    1.1820 n         1 MOL     -0.479292
     20 C7         -1.8990    5.2240    0.7210 c3        1 MOL      0.249966
     21 C8         -2.7880    5.4410   -0.5150 c         1 MOL      0.374935
     22 O5         -3.0570    6.5940   -0.8720 o         1 MOL     -0.552712
     23 C9         -0.5570    5.8040    0.5530 c3        1 MOL     -0.227119
     24 H8         -1.3130    3.1970    0.6090 hn        1 MOL      0.335021
     25 H9         -2.4630    5.8380    1.4150 h1        1 MOL      0.018898
     26 H10         0.0720    5.5600    1.4100 hc        1 MOL      0.052793
     27 H11        -0.1090    5.4430   -0.3720 hc        1 MOL      0.052793
     28 H12        -0.6610    6.8780    0.3920 hc        1 MOL      0.052793
     29 N3         -3.1920    4.3260   -1.1300 n         1 MOL     -0.176691
     30 C10        -4.1980    4.2890   -2.1500 c3        1 MOL      0.179600
     31 C11        -5.4990    3.6200   -1.6090 c         1 MOL      0.353660
     32 O6         -6.5560    3.9020   -2.1810 o         1 MOL     -0.534542
     33 C12        -3.6890    3.6370   -3.4960 c3        1 MOL     -0.339786
     34 C13        -3.1810    2.2310   -3.2960 c         1 MOL      0.820676
     35 O7         -2.2890    1.7310   -4.0230 o         1 MOL     -0.758451
     36 O8         -3.5610    1.5600   -2.3750 o         1 MOL     -0.758451
     37 H13        -2.9140    3.4550   -0.6960 hn        1 MOL      0.076322
     38 H14        -4.4790    5.3240   -2.3360 h1        1 MOL      0.044342
     39 H15        -2.9690    4.3420   -3.9130 hc        1 MOL      0.077243
     40 H16        -4.5120    3.5390   -4.1950 hc        1 MOL      0.077243
     41 N4         -5.5090    2.8960   -0.4320 n         1 MOL     -0.114122
     42 C14        -6.7180    2.4180    0.2920 c3        1 MOL     -0.312736
     43 C15        -7.3730    1.1310   -0.2720 c         1 MOL      0.587554
     44 O9         -8.5600    0.8250   -0.0140 o         1 MOL     -0.600375
     45 H17        -4.6090    2.8220    0.0310 hn        1 MOL      0.112023
     46 H18        -7.4980    3.1790    0.2800 h1        1 MOL      0.131261
     47 H19        -6.4170    2.1840    1.3090 h1        1 MOL      0.131261
     48 N5         -6.5600    0.4000   -1.0300 n         1 MOL     -0.294085
     49 C16        -6.9270   -0.9100   -1.7100 c3        1 MOL     -0.066405
     50 C17        -7.0290   -2.1700   -0.8070 c         1 MOL      0.491787
     51 O10        -7.6420   -3.1490   -1.2160 o         1 MOL     -0.579580
     52 C18        -6.0420   -1.0770   -2.9700 c3        1 MOL     -0.182484
     53 C19        -4.5890   -1.3940   -2.7630 c         1 MOL      0.592133
     54 N6         -3.8940   -1.5620   -3.8460 n         1 MOL     -0.734730
     55 O11        -4.1330   -1.4430   -1.6390 o         1 MOL     -0.431569
     56 H20        -5.6050    0.7130   -1.1330 hn        1 MOL      0.258596
     57 H21        -7.9840   -0.8720   -2.0170 h1        1 MOL      0.100644
     58 H22        -6.2120   -0.2230   -3.6200 hc        1 MOL      0.068173
     59 H23        -6.4550   -1.9180   -3.5210 hc        1 MOL      0.068173
     60 H24        -4.3030   -1.4560   -4.7630 hn        1 MOL      0.345780
     61 H25        -2.9080   -1.7710   -3.7360 hn        1 MOL      0.345780
     62 N7         -6.4890   -2.1360    0.4210 n         1 MOL     -0.149019
     63 C20        -6.5700   -3.2140    1.4690 c3        1 MOL     -0.279827
     64 C21        -5.3030   -4.0900    1.5500 c         1 MOL      0.637447
     65 O12        -5.3980   -5.0680    2.2490 o         1 MOL     -0.584070
     66 H26        -6.0870   -1.2340    0.6480 hn        1 MOL      0.188481
     67 H27        -7.4500   -3.8420    1.3650 h1        1 MOL      0.122714
     68 H28        -6.5590   -2.7630    2.4700 h1        1 MOL      0.122714
     69 N8         -4.2450   -3.7660    0.7740 n         1 MOL     -0.207093
     70 C22        -2.9940   -4.4800    0.7530 c3        1 MOL     -0.060745
     71 C23        -1.8180   -3.4700    0.8880 c         1 MOL      0.617294
     72 O13        -2.0030   -2.2650    0.7720 o         1 MOL     -0.499724
     73 C24        -2.7000   -5.3110   -0.4910 c3        1 MOL      0.408022
     74 C25        -3.5430   -6.6610   -0.4020 c3        1 MOL     -0.514467
     75 O14        -2.9910   -4.4630   -1.6380 oh        1 MOL     -0.700719
     76 H29        -4.1990   -2.8650    0.3200 hn        1 MOL      0.047981
     77 H30        -3.0470   -5.1110    1.6430 h1        1 MOL      0.019786
     78 H31        -1.6710   -5.6560   -0.3920 h1        1 MOL      0.025005
     79 H32        -3.7200   -4.8790   -2.0910 ho        1 MOL      0.429379
     80 H33        -3.2370   -7.3180   -1.2220 hc        1 MOL      0.131714
     81 H34        -3.3630   -7.1780    0.5350 hc        1 MOL      0.131714
     82 H35        -4.6160   -6.4790   -0.3770 hc        1 MOL      0.131714
     83 N9         -0.6130   -3.9940    1.1930 n         1 MOL     -0.584518
     84 C26         0.6010   -3.1560    1.3120 c3        1 MOL      0.277628
     85 C27         1.5360   -3.1630    0.1370 c         1 MOL      0.478673
     86 O15         1.8900   -4.2630   -0.2610 o         1 MOL     -0.629145
     87 C28         1.4600   -3.4440    2.6030 c3        1 MOL      0.087869
     88 C29         0.6090   -4.0910    3.7360 c3        1 MOL      0.189776
     89 C30         2.1080   -2.2140    3.0960 c3        1 MOL     -0.356558
     90 C31         1.2870   -4.3240    5.1130 c3        1 MOL     -0.201850
     91 H36        -0.5470   -4.9840    1.3690 hn        1 MOL      0.271882
     92 H37         0.3250   -2.1080    1.4370 h1        1 MOL     -0.000558
     93 H38         2.1610   -4.2660    2.3970 hc        1 MOL     -0.036400
     94 H39         0.2940   -5.0820    3.4350 hc        1 MOL     -0.038609
     95 H40        -0.2990   -3.4990    3.8860 hc        1 MOL     -0.038609
     96 H41         2.6350   -2.3720    4.0380 hc        1 MOL      0.083209
     97 H42         2.8780   -1.8450    2.4270 hc        1 MOL      0.083209
     98 H43         1.3070   -1.4850    3.2420 hc        1 MOL      0.083209
     99 H44         2.1240   -5.0230    5.0700 hc        1 MOL      0.036587
    100 H45         1.5900   -3.3820    5.5580 hc        1 MOL      0.036587
    101 H46         0.5760   -4.8260    5.7780 hc        1 MOL      0.036587
    102 N10         1.9120   -2.0890   -0.4710 n         1 MOL     -0.136763
    103 C32         2.9680   -1.9320   -1.4310 c3        1 MOL      0.059320
    104 C33         4.3480   -1.6370   -0.8320 c         1 MOL      0.339820
    105 O16         4.4710   -1.1050    0.2800 o         1 MOL     -0.288572
    106 C34         2.4720   -0.9280   -2.4680 c3        1 MOL     -0.200454
    107 C35         0.9990   -0.9960   -2.9980 c         1 MOL      0.771702
    108 O17         0.1340   -0.0680   -2.7350 o         1 MOL     -0.695017
    109 O18         0.6890   -2.0050   -3.6680 o         1 MOL     -0.695017
    110 H47         1.4680   -1.2450   -0.1480 hn        1 MOL      0.071332
    111 H48         3.0530   -2.8180   -2.0500 h1        1 MOL      0.062352
    112 H49         3.0390   -1.0700   -3.3800 hc        1 MOL      0.035057
    113 H50         2.6850    0.0930   -2.1590 hc        1 MOL      0.035057
    114 N11         5.3800   -1.5780   -1.7410 n         1 MOL     -0.543902
    115 C36         6.7580   -1.1790   -1.3970 c3        1 MOL      0.357984
    116 C37         6.8750    0.1350   -0.6270 c         1 MOL      0.301204
    117 O19         7.3660    0.1220    0.4910 o         1 MOL     -0.481295
    118 C38         7.6930   -1.3110   -2.6230 c3        1 MOL     -0.226944
    119 C39         9.1470   -0.9710   -2.3200 ca        1 MOL      0.121147
    120 C40         9.7510   -1.4700   -1.1470 ca        1 MOL     -0.166334
    121 C41         9.8480   -0.2940   -3.2940 ca        1 MOL     -0.166334
    122 C42        11.1330   -1.2890   -0.9640 ca        1 MOL     -0.063164
    123 C43        11.2710   -0.2700   -3.1890 ca        1 MOL     -0.063164
    124 C44        11.8840   -0.8080   -2.0380 ca        1 MOL     -0.199606
    125 H51         5.2070   -2.0560   -2.6080 hn        1 MOL      0.311002
    126 H52         7.1160   -2.0240   -0.8130 h1        1 MOL      0.048941
    127 H53         7.2880   -0.6550   -3.3940 hc        1 MOL      0.068258
    128 H54         7.7400   -2.3270   -3.0200 hc        1 MOL      0.068258
    129 H55         9.1960   -1.9010   -0.3310 ha        1 MOL      0.113003
    130 H56         9.4330    0.0590   -4.2270 ha        1 MOL      0.113003
    131 H57        11.6130   -1.7300   -0.1000 ha        1 MOL      0.101473
    132 H58        11.8670    0.1250   -3.9970 ha        1 MOL      0.101473
    133 H59        12.9570   -0.6700   -1.9470 ha        1 MOL      0.114444
    134 N12         6.3180    1.3060   -1.0550 n         1 MOL     -0.121706
    135 C45         6.4720    2.5930   -0.2410 c3        1 MOL     -0.021652
    136 C46         5.6380    2.5300    1.0720 c         1 MOL      0.330387
    137 O20         5.8690    3.3050    2.0420 o         1 MOL     -0.508983
    138 C47         6.1120    3.6690   -1.2840 c3        1 MOL     -0.097315
    139 C48         5.0330    3.0020   -2.0900 c3        1 MOL      0.100684
    140 C49         5.5710    1.5650   -2.2840 c3        1 MOL     -0.100601
    141 H60         7.4990    2.8480   -0.0020 h1        1 MOL      0.089515
    142 H61         5.6920    4.5210   -0.7560 hc        1 MOL      0.048712
    143 H62         6.8860    4.0050   -1.9810 hc        1 MOL      0.048712
    144 H63         4.1390    3.0870   -1.4690 hc        1 MOL      0.004629
    145 H64         4.8560    3.5290   -3.0380 hc        1 MOL      0.004629
    146 H65         4.7510    0.8500   -2.3530 h1        1 MOL      0.043019
    147 H66         6.2520    1.4440   -3.1280 h1        1 MOL      0.043019
    148 N13         4.5790    1.6940    1.1300 n         1 MOL     -0.081934
    149 C50         3.5950    1.5820    2.2540 c3        1 MOL     -0.134136
    150 C51         4.1850    0.6100    3.2960 c         1 MOL      0.375741
    151 O21         4.0490    0.8350    4.4640 o         1 MOL     -0.556132
    152 C52         2.1950    1.0810    1.8140 c3        1 MOL      0.143615
    153 C53         1.4930    1.9840    0.7970 c3        1 MOL     -0.086501
    154 C54         0.2960    1.2580    0.2150 c         1 MOL      0.670936
    155 O22         0.1700    0.0480    0.2150 o         1 MOL     -0.736837
    156 O23        -0.5180    1.9720   -0.4040 o         1 MOL     -0.736837
    157 H67         4.3970    0.9740    0.4410 hn        1 MOL      0.211591
    158 H68         3.4780    2.5630    2.6980 h1        1 MOL      0.127998
    159 H69         1.5390    0.9220    2.6690 hc        1 MOL      0.006742
    160 H70         2.3820    0.1060    1.3660 hc        1 MOL      0.006742
    161 H71         2.1970    2.1470   -0.0220 hc        1 MOL      0.017855
    162 H72         1.2240    2.9620    1.1980 hc        1 MOL      0.017855
    163 N14         4.9570   -0.3370    2.8650 n         1 MOL      0.090806
    164 C55         5.8340   -1.2520    3.6220 c3        1 MOL     -0.207022
    165 H73         5.4710   -2.2750    3.5130 h1        1 MOL      0.073154
    166 H74         6.8500   -1.1850    3.2350 h1        1 MOL      0.073154
    167 H75         5.8260   -0.9760    4.6760 h1        1 MOL      0.073154
    168 H76         5.0120   -0.4620    1.8600 hn        1 MOL     -0.051459
    169 Ca1        -1.8930   -0.0060   -1.2480 Ca        1 MOL      1.751418
    170 O24        -1.5080   -2.3050   -2.5150 oh        1 MOL     -0.953306
    171 H77        -1.9700   -3.1400   -2.5070 ho        1 MOL      0.441487
    172 H78        -0.7500   -2.4680   -3.0790 ho        1 MOL      0.441487
@<TRIPOS>BOND
     1    1    2 1   
     2    1    4 1   
     3    1    5 1   
     4    1    6 1   
     5    2    3 2   
     6    2    7 1   
     7    7    8 1   
     8    7   15 1   
     9    8    9 1   
    10    8   11 1   
    11    8   16 1   
    12    9   10 2   
    13    9   19 1   
    14   11   12 1   
    15   11   17 1   
    16   11   18 1   
    17   12   13 1   
    18   12   14 1   
    19   19   20 1   
    20   19   24 1   
    21   20   21 1   
    22   20   23 1   
    23   20   25 1   
    24   21   22 2   
    25   21   29 1   
    26   23   26 1   
    27   23   27 1   
    28   23   28 1   
    29   29   30 1   
    30   29   37 1   
    31   30   31 1   
    32   30   33 1   
    33   30   38 1   
    34   31   32 2   
    35   31   41 1   
    36   33   34 1   
    37   33   39 1   
    38   33   40 1   
    39   34   35 1   
    40   34   36 1   
    41   41   42 1   
    42   41   45 1   
    43   42   43 1   
    44   42   46 1   
    45   42   47 1   
    46   43   44 2   
    47   43   48 1   
    48   48   49 1   
    49   48   56 1   
    50   49   50 1   
    51   49   52 1   
    52   49   57 1   
    53   50   51 2   
    54   50   62 1   
    55   52   53 1   
    56   52   58 1   
    57   52   59 1   
    58   53   54 1   
    59   53   55 2   
    60   54   60 1   
    61   54   61 1   
    62   62   63 1   
    63   62   66 1   
    64   63   64 1   
    65   63   67 1   
    66   63   68 1   
    67   64   65 2   
    68   64   69 1   
    69   69   70 1   
    70   69   76 1   
    71   70   71 1   
    72   70   73 1   
    73   70   77 1   
    74   71   72 2   
    75   71   83 1   
    76   73   74 1   
    77   73   75 1   
    78   73   78 1   
    79   74   80 1   
    80   74   81 1   
    81   74   82 1   
    82   75   79 1   
    83   83   84 1   
    84   83   91 1   
    85   84   85 1   
    86   84   87 1   
    87   84   92 1   
    88   85   86 2   
    89   85  102 1   
    90   87   88 1   
    91   87   89 1   
    92   87   93 1   
    93   88   90 1   
    94   88   94 1   
    95   88   95 1   
    96   89   96 1   
    97   89   97 1   
    98   89   98 1   
    99   90   99 1   
   100   90  100 1   
   101   90  101 1   
   102  102  103 1   
   103  102  110 1   
   104  103  104 1   
   105  103  106 1   
   106  103  111 1   
   107  104  105 2   
   108  104  114 1   
   109  106  107 1   
   110  106  112 1   
   111  106  113 1   
   112  107  108 1   
   113  107  109 1   
   114  114  115 1   
   115  114  125 1   
   116  115  116 1   
   117  115  118 1   
   118  115  126 1   
   119  116  117 2   
   120  116  134 1   
   121  118  119 1   
   122  118  127 1   
   123  118  128 1   
   124  119  120 ar  
   125  119  121 ar  
   126  120  122 ar  
   127  120  129 1   
   128  121  123 ar  
   129  121  130 1   
   130  122  124 ar  
   131  122  131 1   
   132  123  124 ar  
   133  123  132 1   
   134  124  133 1   
   135  134  135 1   
   136  134  140 1   
   137  135  136 1   
   138  135  138 1   
   139  135  141 1   
   140  136  137 2   
   141  136  148 1   
   142  138  139 1   
   143  138  142 1   
   144  138  143 1   
   145  139  140 1   
   146  139  144 1   
   147  139  145 1   
   148  140  146 1   
   149  140  147 1   
   150  148  149 1   
   151  148  157 1   
   152  149  150 1   
   153  149  152 1   
   154  149  158 1   
   155  150  151 2   
   156  150  163 1   
   157  152  153 1   
   158  152  159 1   
   159  152  160 1   
   160  153  154 1   
   161  153  161 1   
   162  153  162 1   
   163  154  155 1   
   164  154  156 1   
   165  163  164 1   
   166  163  168 1   
   167  164  165 1   
   168  164  166 1   
   169  164  167 1   
   170  170  171 1   
   171  170  172 1   
@<TRIPOS>SUBSTRUCTURE
     1 MOL         1 TEMP              0 ****  ****    0 ROOT
