@<TRIPOS>MOLECULE
MOL
  183   181     1     0     0
SMALL
resp


@<TRIPOS>ATOM
      1 C1         -0.3250    1.9600    6.3460 c3        1 MOL     -0.234453
      2 C2         -0.7560    1.9530    4.8060 c         1 MOL      0.724203
      3 O1          0.0900    2.2330    3.9120 o         1 MOL     -0.593469
      4 H1         -1.2040    2.1250    6.9680 hc        1 MOL      0.049283
      5 H2          0.1250    1.0020    6.6020 hc        1 MOL      0.049283
      6 H3          0.3960    2.7590    6.5170 hc        1 MOL      0.049283
      7 N1         -1.9420    1.4830    4.4570 n         1 MOL     -0.678882
      8 C3         -2.3510    1.5180    3.0960 c3        1 MOL      0.130464
      9 C4         -2.5870    2.9820    2.6000 c         1 MOL      0.580910
     10 O2         -3.3890    3.7350    3.2470 o         1 MOL     -0.590712
     11 C5         -3.5990    0.6620    2.9830 c3        1 MOL     -0.162976
     12 C6         -4.2520    0.6180    1.6020 c         1 MOL      0.681329
     13 O3         -5.4650    0.2500    1.6160 o         1 MOL     -0.663299
     14 O4         -3.7290    0.8640    0.5630 o         1 MOL     -0.663299
     15 H4         -2.5290    1.1700    5.2220 hn        1 MOL      0.346742
     16 H5         -1.5340    1.1280    2.4870 h1        1 MOL      0.129311
     17 H6         -4.2510    1.1340    3.7190 hc        1 MOL      0.027108
     18 H7         -3.3400   -0.3680    3.2160 hc        1 MOL      0.027108
     19 N2         -2.0560    3.3460    1.4540 n         1 MOL     -0.413062
     20 C7         -2.3530    4.6210    0.8140 c3        1 MOL     -0.030333
     21 C8         -3.6900    4.5560    0.0330 c         1 MOL      0.457231
     22 O5         -4.4390    5.5450   -0.0090 o         1 MOL     -0.575933
     23 C9         -1.0950    5.1750    0.0120 c3        1 MOL      0.132160
     24 C10         0.0140    5.7170    0.9220 c3        1 MOL      0.115251
     25 C11        -1.5900    6.4050   -0.7970 c3        1 MOL     -0.197306
     26 C12         1.3530    6.0290    0.2140 c3        1 MOL     -0.083778
     27 H8         -1.6490    2.5490    0.9680 hn        1 MOL      0.144640
     28 H9         -2.5320    5.2850    1.6650 h1        1 MOL      0.068587
     29 H10        -0.6840    4.3860   -0.6100 hc        1 MOL      0.045423
     30 H11         0.2570    5.0130    1.7180 hc        1 MOL     -0.024133
     31 H12        -0.3100    6.5660    1.5150 hc        1 MOL     -0.024133
     32 H13        -2.1820    6.0160   -1.6340 hc        1 MOL      0.038928
     33 H14        -2.0970    7.1870   -0.2290 hc        1 MOL      0.038928
     34 H15        -0.7380    6.8780   -1.2720 hc        1 MOL      0.038928
     35 H16         1.5940    5.2170   -0.4740 hc        1 MOL      0.004708
     36 H17         1.1510    6.9250   -0.3580 hc        1 MOL      0.004708
     37 H18         2.0960    6.2530    0.9790 hc        1 MOL      0.004708
     38 N3         -4.0600    3.4120   -0.6160 n         1 MOL     -0.131115
     39 C13        -5.2120    3.3750   -1.5930 c3        1 MOL     -0.271465
     40 C14        -6.5830    2.7780   -1.1190 c         1 MOL      0.466331
     41 O6         -7.4650    2.6780   -2.0130 o         1 MOL     -0.520115
     42 C15        -4.6830    2.6480   -2.9190 c3        1 MOL      0.070943
     43 C16        -3.1810    2.6540   -3.1410 c         1 MOL      0.611911
     44 O7         -2.7400    3.3980   -4.0230 o         1 MOL     -0.679047
     45 O8         -2.4420    1.8530   -2.5650 o         1 MOL     -0.679047
     46 H19        -3.5190    2.6070   -0.3310 hn        1 MOL      0.205953
     47 H20        -5.4600    4.3780   -1.9340 h1        1 MOL      0.155870
     48 H21        -5.2160    2.9690   -3.8170 hc        1 MOL     -0.015149
     49 H22        -5.0070    1.6050   -2.9160 hc        1 MOL     -0.015149
     50 N4         -6.7150    2.1780    0.0990 n         1 MOL     -0.276524
     51 C17        -7.9520    1.6230    0.5410 c3        1 MOL     -0.125514
     52 C18        -8.2390    0.2360   -0.1040 c         1 MOL      0.479172
     53 O9         -9.4130   -0.0340   -0.4080 o         1 MOL     -0.635545
     54 H23        -5.9360    2.0900    0.7350 hn        1 MOL      0.247570
     55 H24        -8.7610    2.3180    0.3380 h1        1 MOL      0.081751
     56 H25        -7.9530    1.4440    1.6090 h1        1 MOL      0.081751
     57 N5         -7.3510   -0.6410   -0.3550 n         1 MOL     -0.093383
     58 C19        -7.5510   -1.9410   -1.0880 c3        1 MOL     -0.249097
     59 C20        -7.2800   -3.1920   -0.2250 c         1 MOL      0.463578
     60 O10        -7.4170   -4.3340   -0.5650 o         1 MOL     -0.538609
     61 C21        -6.6980   -1.9000   -2.3490 c3        1 MOL      0.068416
     62 C22        -5.1850   -1.5800   -2.0780 c         1 MOL      0.722831
     63 O11        -4.4380   -1.2770   -3.0630 o         1 MOL     -0.782161
     64 O12        -4.7260   -1.7140   -0.9530 o         1 MOL     -0.782161
     65 H26        -6.4530   -0.4680    0.0710 hn        1 MOL      0.152685
     66 H27        -8.5620   -2.0050   -1.5000 h1        1 MOL      0.154364
     67 H28        -7.1310   -1.2930   -3.1410 hc        1 MOL      0.007476
     68 H29        -6.6160   -2.8460   -2.8840 hc        1 MOL      0.007476
     69 N6         -6.9390   -2.9150    1.0490 n         1 MOL     -0.150533
     70 C23        -6.7940   -3.8210    2.1310 c3        1 MOL     -0.255989
     71 C24        -5.3410   -4.3750    2.1440 c         1 MOL      0.661930
     72 O13        -5.1750   -5.4360    2.7390 o         1 MOL     -0.621844
     73 H30        -6.6650   -1.9520    1.1740 hn        1 MOL      0.143497
     74 H31        -7.4770   -4.6600    1.9850 h1        1 MOL      0.104097
     75 H32        -6.9790   -3.2770    3.0660 h1        1 MOL      0.104097
     76 N7         -4.3940   -3.6720    1.5620 n         1 MOL     -0.444559
     77 C25        -3.0730   -4.2170    1.4380 c3        1 MOL      0.028166
     78 C26        -2.1040   -3.0100    1.3100 c         1 MOL      0.379473
     79 O14        -2.4360   -1.9040    0.9470 o         1 MOL     -0.419921
     80 C27        -3.0010   -5.2820    0.3090 c3        1 MOL      0.051228
     81 C28        -3.0940   -4.8250   -1.1650 c3        1 MOL     -0.117307
     82 C29        -1.7280   -4.2710   -1.7430 c         1 MOL      0.445409
     83 N8         -0.8710   -5.0690   -2.4360 n         1 MOL     -0.701931
     84 O15        -1.5420   -3.0590   -1.6150 o         1 MOL     -0.402481
     85 H33        -4.7120   -2.8690    1.0270 hn        1 MOL      0.360674
     86 H34        -2.8010   -4.7340    2.3530 h1        1 MOL      0.055621
     87 H35        -3.6550   -6.1190    0.5330 hc        1 MOL     -0.001750
     88 H36        -1.9930   -5.7120    0.3630 hc        1 MOL     -0.001750
     89 H37        -3.9050   -4.1140   -1.3400 hc        1 MOL      0.058764
     90 H38        -3.3280   -5.7130   -1.7600 hc        1 MOL      0.058764
     91 H39        -1.1450   -5.9760   -2.7860 hn        1 MOL      0.339770
     92 H40        -0.0300   -4.6840   -2.8390 hn        1 MOL      0.339770
     93 N9         -0.8550   -3.3180    1.4170 n         1 MOL     -0.194164
     94 C30         0.1960   -2.3300    1.5530 c3        1 MOL     -0.146858
     95 C31         1.5110   -2.7950    0.8530 c         1 MOL      0.397818
     96 O16         1.9610   -3.9120    1.2270 o         1 MOL     -0.554392
     97 C32         0.5380   -2.0570    3.0170 c3        1 MOL      0.414057
     98 C33         1.5970   -0.9530    3.2180 c3        1 MOL     -0.431703
     99 C34        -0.6350   -1.7220    3.9460 c3        1 MOL     -0.431703
    100 H41        -0.7160   -4.1960    1.8940 hn        1 MOL      0.225577
    101 H42        -0.1760   -1.3960    1.1370 h1        1 MOL     -0.075780
    102 H43         1.0470   -2.9550    3.3940 hc        1 MOL     -0.054762
    103 H44         1.9170   -0.8220    4.2560 hc        1 MOL      0.096348
    104 H45         2.4650   -1.2530    2.6330 hc        1 MOL      0.096348
    105 H46         1.1010   -0.0610    2.8380 hc        1 MOL      0.096348
    106 H47        -1.0850   -2.6650    4.2640 hc        1 MOL      0.096348
    107 H48        -0.2610   -1.2330    4.8440 hc        1 MOL      0.096348
    108 H49        -1.3010   -0.9450    3.5930 hc        1 MOL      0.096348
    109 N10         2.0520   -2.0600   -0.1330 n         1 MOL     -0.134082
    110 C35         3.2500   -2.4610   -0.8830 c3        1 MOL      0.084754
    111 C36         4.5050   -1.7510   -0.3560 c         1 MOL      0.270811
    112 O17         4.3630   -0.7420    0.3430 o         1 MOL     -0.180969
    113 C37         3.1990   -2.2240   -2.4020 c3        1 MOL     -0.239437
    114 C38         2.1010   -2.8600   -3.1720 c         1 MOL      0.716453
    115 N11         0.8730   -2.4850   -2.9480 n         1 MOL     -0.741277
    116 O18         2.2820   -3.7750   -3.9340 o         1 MOL     -0.645760
    117 H50         1.5390   -1.2350   -0.4060 hn        1 MOL      0.187594
    118 H51         3.3420   -3.5330   -0.7260 h1        1 MOL      0.040362
    119 H52         4.1440   -2.5520   -2.8370 hc        1 MOL      0.066580
    120 H53         3.0810   -1.1630   -2.6170 hc        1 MOL      0.066580
    121 H54         0.7440   -1.7540   -2.2670 hn        1 MOL      0.346455
    122 H55         0.1520   -2.8610   -3.5390 hn        1 MOL      0.346455
    123 N12         5.6980   -2.0840   -0.7870 n         1 MOL     -0.374933
    124 C39         6.9210   -1.5580   -0.1150 c3        1 MOL      0.036943
    125 C40         7.1940   -0.1000   -0.3750 c         1 MOL      0.561228
    126 O19         7.6820    0.6150    0.5080 o         1 MOL     -0.518630
    127 C41         8.0890   -2.4610   -0.4900 c3        1 MOL     -0.137564
    128 C42         9.4590   -2.2230    0.1020 ca        1 MOL      0.126742
    129 C43         9.7460   -2.7560    1.3920 ca        1 MOL     -0.298100
    130 C44        10.3910   -1.3550   -0.5800 ca        1 MOL     -0.298100
    131 C45        10.9010   -2.3590    2.1110 ca        1 MOL     -0.085900
    132 C46        11.5820   -1.0270    0.1260 ca        1 MOL     -0.085900
    133 C47        11.8150   -1.5390    1.4150 ca        1 MOL      0.182480
    134 O20        12.9130   -1.1080    2.1610 oh        1 MOL     -0.525223
    135 H56         5.8910   -2.8370   -1.4210 hn        1 MOL      0.286406
    136 H57         6.8090   -1.7620    0.9440 h1        1 MOL      0.105790
    137 H58         8.1670   -2.4630   -1.5770 hc        1 MOL      0.042922
    138 H59         7.7770   -3.4600   -0.1830 hc        1 MOL      0.042922
    139 H60         9.0200   -3.2300    2.0350 ha        1 MOL      0.179580
    140 H61        10.2090   -0.9100   -1.5450 ha        1 MOL      0.179580
    141 H62        11.2090   -2.7000    3.0880 ha        1 MOL      0.114129
    142 H63        12.2510   -0.3120   -0.3340 ha        1 MOL      0.114129
    143 H64        13.5780   -0.5320    1.7730 ho        1 MOL      0.382605
    144 N13         6.6800    0.4780   -1.4900 n         1 MOL     -0.470682
    145 C48         6.5870    1.9020   -1.7040 c3        1 MOL      0.236866
    146 C49         5.5880    2.6680   -0.7910 c         1 MOL      0.298594
    147 O21         5.8930    3.8000   -0.4690 o         1 MOL     -0.515606
    148 C50         6.1520    2.1970   -3.1320 c3        1 MOL     -0.355431
    149 C51         4.8460    1.4460   -3.5480 c3        1 MOL      0.008356
    150 C52         4.4800    1.9060   -4.9570 c         1 MOL      0.737323
    151 O22         3.5550    2.6890   -5.1200 o         1 MOL     -0.738112
    152 O23         4.9950    1.2730   -5.9460 o         1 MOL     -0.738112
    153 H65         6.1400   -0.0970   -2.1290 hn        1 MOL      0.289181
    154 H66         7.5510    2.3630   -1.4940 h1        1 MOL      0.035930
    155 H67         6.9260    1.9910   -3.8690 hc        1 MOL      0.090715
    156 H68         5.8550    3.2440   -3.1840 hc        1 MOL      0.090715
    157 H69         3.9970    1.6900   -2.9000 hc        1 MOL     -0.054259
    158 H70         5.0440    0.3810   -3.5700 hc        1 MOL     -0.054259
    159 N14         4.5690    1.9730   -0.2220 n         1 MOL     -0.052171
    160 C53         3.6560    2.4250    0.7870 c3        1 MOL     -0.060352
    161 C54         4.2610    2.3230    2.2630 c         1 MOL      0.470273
    162 O24         4.0100    3.1220    3.0750 o         1 MOL     -0.526268
    163 C55         2.3370    1.7040    0.8060 c3        1 MOL      0.231891
    164 C56         1.4930    1.7430   -0.5270 c3        1 MOL     -0.097074
    165 C57         0.3030    0.8110   -0.4790 c         1 MOL      0.378128
    166 O25        -0.7090    1.0830    0.2010 o         1 MOL     -0.578038
    167 O26         0.1560   -0.2480   -1.1750 o         1 MOL     -0.578038
    168 H71         4.5670    0.9700   -0.3720 hn        1 MOL      0.055910
    169 H72         3.2580    3.4350    0.6870 h1        1 MOL      0.050050
    170 H73         1.6960    2.2090    1.5240 hc        1 MOL     -0.005397
    171 H74         2.4420    0.6360    0.9800 hc        1 MOL     -0.005397
    172 H75         2.1450    1.6090   -1.3880 hc        1 MOL      0.087718
    173 H76         1.2210    2.8040   -0.5380 hc        1 MOL      0.087718
    174 N15         4.9990    1.2310    2.4810 n         1 MOL     -0.027944
    175 C58         5.7490    0.9620    3.6830 c3        1 MOL     -0.470108
    176 H77         5.0710    0.9470    4.5370 h1        1 MOL      0.145107
    177 H78         6.2440   -0.0040    3.5950 h1        1 MOL      0.145107
    178 H79         6.4970    1.7420    3.8280 h1        1 MOL      0.145107
    179 H80         5.0850    0.5540    1.7400 hn        1 MOL     -0.004954
    180 Ca1        -2.4300   -0.3890   -1.2570 Ca        1 MOL      1.673284
    181 O27        -1.5090   -0.6170   -3.8140 oh        1 MOL     -0.897325
    182 H81        -1.1580    0.1570   -4.2440 ho        1 MOL      0.439550
    183 H82        -2.1570   -0.9620   -4.4320 ho        1 MOL      0.439550
@<TRIPOS>BOND
     1    1    2 1   
     2    1    4 1   
     3    1    5 1   
     4    1    6 1   
     5    2    3 2   
     6    2    7 1   
     7    7    8 1   
     8    7   15 1   
     9    8    9 1   
    10    8   11 1   
    11    8   16 1   
    12    9   10 2   
    13    9   19 1   
    14   11   12 1   
    15   11   17 1   
    16   11   18 1   
    17   12   13 1   
    18   12   14 1   
    19   19   20 1   
    20   19   27 1   
    21   20   21 1   
    22   20   23 1   
    23   20   28 1   
    24   21   22 2   
    25   21   38 1   
    26   23   24 1   
    27   23   25 1   
    28   23   29 1   
    29   24   26 1   
    30   24   30 1   
    31   24   31 1   
    32   25   32 1   
    33   25   33 1   
    34   25   34 1   
    35   26   35 1   
    36   26   36 1   
    37   26   37 1   
    38   38   39 1   
    39   38   46 1   
    40   39   40 1   
    41   39   42 1   
    42   39   47 1   
    43   40   41 2   
    44   40   50 1   
    45   42   43 1   
    46   42   48 1   
    47   42   49 1   
    48   43   44 1   
    49   43   45 1   
    50   50   51 1   
    51   50   54 1   
    52   51   52 1   
    53   51   55 1   
    54   51   56 1   
    55   52   53 2   
    56   52   57 1   
    57   57   58 1   
    58   57   65 1   
    59   58   59 1   
    60   58   61 1   
    61   58   66 1   
    62   59   60 2   
    63   59   69 1   
    64   61   62 1   
    65   61   67 1   
    66   61   68 1   
    67   62   63 1   
    68   62   64 1   
    69   69   70 1   
    70   69   73 1   
    71   70   71 1   
    72   70   74 1   
    73   70   75 1   
    74   71   72 2   
    75   71   76 1   
    76   76   77 1   
    77   76   85 1   
    78   77   78 1   
    79   77   80 1   
    80   77   86 1   
    81   78   79 2   
    82   78   93 1   
    83   80   81 1   
    84   80   87 1   
    85   80   88 1   
    86   81   82 1   
    87   81   89 1   
    88   81   90 1   
    89   82   83 1   
    90   82   84 2   
    91   83   91 1   
    92   83   92 1   
    93   93   94 1   
    94   93  100 1   
    95   94   95 1   
    96   94   97 1   
    97   94  101 1   
    98   95   96 2   
    99   95  109 1   
   100   97   98 1   
   101   97   99 1   
   102   97  102 1   
   103   98  103 1   
   104   98  104 1   
   105   98  105 1   
   106   99  106 1   
   107   99  107 1   
   108   99  108 1   
   109  109  110 1   
   110  109  117 1   
   111  110  111 1   
   112  110  113 1   
   113  110  118 1   
   114  111  112 2   
   115  111  123 1   
   116  113  114 1   
   117  113  119 1   
   118  113  120 1   
   119  114  115 1   
   120  114  116 2   
   121  115  121 1   
   122  115  122 1   
   123  123  124 1   
   124  123  135 1   
   125  124  125 1   
   126  124  127 1   
   127  124  136 1   
   128  125  126 2   
   129  125  144 1   
   130  127  128 1   
   131  127  137 1   
   132  127  138 1   
   133  128  129 ar  
   134  128  130 ar  
   135  129  131 ar  
   136  129  139 1   
   137  130  132 ar  
   138  130  140 1   
   139  131  133 ar  
   140  131  141 1   
   141  132  133 ar  
   142  132  142 1   
   143  133  134 1   
   144  134  143 1   
   145  144  145 1   
   146  144  153 1   
   147  145  146 1   
   148  145  148 1   
   149  145  154 1   
   150  146  147 2   
   151  146  159 1   
   152  148  149 1   
   153  148  155 1   
   154  148  156 1   
   155  149  150 1   
   156  149  157 1   
   157  149  158 1   
   158  150  151 1   
   159  150  152 1   
   160  159  160 1   
   161  159  168 1   
   162  160  161 1   
   163  160  163 1   
   164  160  169 1   
   165  161  162 2   
   166  161  174 1   
   167  163  164 1   
   168  163  170 1   
   169  163  171 1   
   170  164  165 1   
   171  164  172 1   
   172  164  173 1   
   173  165  166 1   
   174  165  167 1   
   175  174  175 1   
   176  174  179 1   
   177  175  176 1   
   178  175  177 1   
   179  175  178 1   
   180  181  182 1   
   181  181  183 1   
@<TRIPOS>SUBSTRUCTURE
     1 MOL         1 TEMP              0 ****  ****    0 ROOT
