@<TRIPOS>MOLECULE
MOL
  179   176     1     0     0
SMALL
resp


@<TRIPOS>ATOM
      1 C1          0.6980    3.2640    6.3930 c3        1 MOL     -0.389750
      2 C2          0.4710    2.7200    4.9760 c         1 MOL      0.710328
      3 O1          1.4440    2.4000    4.3190 o         1 MOL     -0.573253
      4 H1          1.1820    4.2400    6.3340 hc        1 MOL      0.097470
      5 H2         -0.2600    3.3650    6.9030 hc        1 MOL      0.097470
      6 H3          1.3360    2.5770    6.9500 hc        1 MOL      0.097470
      7 N1         -0.7700    2.7250    4.4870 n         1 MOL     -0.599564
      8 C3         -1.1840    2.2930    3.1300 c3        1 MOL      0.052765
      9 C4         -1.4670    3.5660    2.2810 c         1 MOL      0.632111
     10 O2         -2.2900    4.3770    2.6780 o         1 MOL     -0.554447
     11 C5         -2.4360    1.4180    3.3110 c3        1 MOL     -0.176418
     12 C6         -2.9600    0.8690    2.0110 c         1 MOL      0.945121
     13 O3         -3.9540    0.1330    1.9920 o         1 MOL     -0.858690
     14 O4         -2.4860    1.1400    0.8790 o         1 MOL     -0.858690
     15 H4         -1.5100    3.0040    5.1160 hn        1 MOL      0.324411
     16 H5         -0.4530    1.6420    2.6560 h1        1 MOL      0.029888
     17 H6         -3.2440    1.9730    3.8060 hc        1 MOL      0.046132
     18 H7         -2.1440    0.5300    3.8820 hc        1 MOL      0.046132
     19 N2         -0.7100    3.7140    1.2050 n         1 MOL     -0.256407
     20 C7         -0.5940    5.0370    0.5170 c3        1 MOL     -0.369285
     21 C8         -1.8510    5.4760   -0.3510 c         1 MOL      0.555681
     22 O5         -1.9470    6.6950   -0.7060 o         1 MOL     -0.577567
     23 C9          0.7080    4.9580   -0.2420 c3        1 MOL      0.355639
     24 C10         1.2100    6.3300   -0.8350 c3        1 MOL     -0.338148
     25 C11         2.5770    6.1750   -1.5650 c3        1 MOL      0.245842
     26 C12         3.0760    7.4740   -2.1830 c3        1 MOL     -0.136669
     27 N3          2.4270    7.7370   -3.4880 n4        1 MOL     -0.293617
     28 H8         -0.1110    2.9790    0.8780 hn        1 MOL      0.190173
     29 H9         -0.4210    5.7460    1.3240 h1        1 MOL      0.147115
     30 H10         0.6900    4.2160   -1.0380 hc        1 MOL      0.001117
     31 H11         1.4430    4.5540    0.4570 hc        1 MOL      0.001117
     32 H12         1.3450    6.9810    0.0350 hc        1 MOL      0.088180
     33 H13         0.5200    6.6420   -1.6210 hc        1 MOL      0.088180
     34 H14         2.4790    5.4900   -2.4170 hc        1 MOL     -0.036791
     35 H15         3.3230    5.7150   -0.9180 hc        1 MOL     -0.036791
     36 H16         4.1420    7.4750   -2.3740 hx        1 MOL      0.125909
     37 H17         2.8070    8.2670   -1.4890 hx        1 MOL      0.125909
     38 H18         2.6830    7.0050   -4.1430 hn        1 MOL      0.313236
     39 H19         1.4270    7.5910   -3.4140 hn        1 MOL      0.313236
     40 H20         2.6500    8.6320   -3.8970 hn        1 MOL      0.313236
     41 N4         -2.5990    4.4420   -0.8020 n         1 MOL     -0.281584
     42 C13        -3.7990    4.5930   -1.6520 c3        1 MOL      0.020471
     43 C14        -5.0440    4.0090   -1.0130 c         1 MOL      0.523592
     44 O6         -6.0980    3.9440   -1.6240 o         1 MOL     -0.523340
     45 C15        -3.3900    3.9120   -2.9960 c3        1 MOL     -0.355168
     46 C16        -2.8270    2.5380   -2.8760 c         1 MOL      0.774774
     47 O7         -3.0590    1.8080   -1.8820 o         1 MOL     -0.675775
     48 O8         -2.2340    2.1560   -3.8620 o         1 MOL     -0.675775
     49 H21        -2.3940    3.5030   -0.4840 hn        1 MOL      0.166971
     50 H22        -4.1080    5.6190   -1.8130 h1        1 MOL      0.098010
     51 H23        -2.7280    4.5450   -3.5880 hc        1 MOL      0.097349
     52 H24        -4.3720    3.7210   -3.4360 hc        1 MOL      0.097349
     53 N5         -4.8460    3.5500    0.2500 n         1 MOL     -0.360202
     54 C17        -5.8450    2.8090    1.0070 c3        1 MOL     -0.068472
     55 C18        -6.4640    1.5100    0.4530 c         1 MOL      0.486933
     56 O9         -7.6000    1.2280    0.7950 o         1 MOL     -0.557271
     57 H25        -3.8720    3.4330    0.5000 hn        1 MOL      0.201389
     58 H26        -6.6880    3.4680    1.2250 h1        1 MOL      0.089351
     59 H27        -5.3020    2.6020    1.9260 h1        1 MOL      0.089351
     60 N6         -5.8200    0.7820   -0.4810 n         1 MOL     -0.082623
     61 C19        -6.4230   -0.3530   -1.0790 c3        1 MOL     -0.080971
     62 C20        -6.6310   -1.6470   -0.2190 c         1 MOL      0.534418
     63 O10        -7.5080   -2.4580   -0.5070 o         1 MOL     -0.553841
     64 C21        -5.6820   -0.7630   -2.4160 c3        1 MOL     -0.408870
     65 C22        -4.5130   -1.7930   -2.2630 c         1 MOL      0.644251
     66 N7         -4.5280   -2.8650   -2.9530 n         1 MOL     -0.799135
     67 O11        -3.6180   -1.5380   -1.4790 o         1 MOL     -0.614380
     68 H28        -4.8690    0.9410   -0.7840 hn        1 MOL      0.141083
     69 H29        -7.4080    0.0510   -1.3190 h1        1 MOL      0.121813
     70 H30        -5.1990    0.0990   -2.8870 hc        1 MOL      0.140261
     71 H31        -6.4540   -1.1940   -3.0560 hc        1 MOL      0.140261
     72 H32        -5.3040   -3.0260   -3.5750 hn        1 MOL      0.387089
     73 H33        -4.0200   -3.6760   -2.6490 hn        1 MOL      0.387089
     74 N8         -6.0020   -1.6890    0.9920 n         1 MOL     -0.337451
     75 C23        -6.2500   -2.7050    2.1020 c3        1 MOL     -0.082419
     76 C24        -4.9660   -3.5850    2.3610 c         1 MOL      0.400856
     77 O12        -4.9630   -4.3330    3.3480 o         1 MOL     -0.533853
     78 H34        -5.2550   -1.0650    1.2330 hn        1 MOL      0.347919
     79 H35        -7.1130   -3.2050    1.6760 h1        1 MOL      0.101237
     80 H36        -6.6530   -2.2920    3.0240 h1        1 MOL      0.101237
     81 N9         -3.8730   -3.4020    1.5970 n         1 MOL     -0.176154
     82 C25        -2.5950   -4.0710    1.7560 c3        1 MOL      0.019114
     83 C26        -1.3780   -3.1610    1.3810 c         1 MOL      0.650525
     84 O13        -1.5650   -2.3780    0.4650 o         1 MOL     -0.611564
     85 C27        -2.5720   -5.4510    0.9580 c3        1 MOL     -0.204153
     86 C28        -2.6210   -5.2940   -0.5530 ca        1 MOL      0.156586
     87 C29        -1.5230   -5.0800   -1.3840 ca        1 MOL     -0.211226
     88 C30        -3.8620   -5.6130   -1.1470 ca        1 MOL     -0.211226
     89 C31        -1.6440   -5.1510   -2.7550 ca        1 MOL     -0.188621
     90 C32        -4.0640   -5.7710   -2.5030 ca        1 MOL     -0.188621
     91 C33        -2.8850   -5.5650   -3.2990 ca        1 MOL      0.211610
     92 O14        -2.9110   -5.6750   -4.6420 oh        1 MOL     -0.448611
     93 H37        -3.9340   -2.8060    0.7740 hn        1 MOL      0.203354
     94 H38        -2.4340   -4.3100    2.8140 h1        1 MOL      0.069198
     95 H39        -3.3590   -6.1250    1.2790 hc        1 MOL      0.083009
     96 H40        -1.6700   -6.0160    1.2110 hc        1 MOL      0.083009
     97 H41        -0.5830   -4.8860   -0.8970 ha        1 MOL      0.151383
     98 H42        -4.6290   -5.9040   -0.4380 ha        1 MOL      0.151383
     99 H43        -0.7110   -5.1550   -3.2880 ha        1 MOL      0.147071
    100 H44        -5.0220   -5.9710   -2.9580 ha        1 MOL      0.147071
    101 H45        -2.0090   -5.6120   -4.9770 ho        1 MOL      0.339870
    102 N10        -0.2320   -3.3320    2.0360 n         1 MOL     -0.629946
    103 C34         1.0540   -2.6820    1.7240 c3        1 MOL     -0.035843
    104 C35         1.9920   -3.6730    0.9920 c         1 MOL      0.643540
    105 O15         1.7980   -4.8990    1.1270 o         1 MOL     -0.538877
    106 C36         1.6560   -2.0570    3.0360 c3        1 MOL      0.123927
    107 C37         1.7410   -3.1450    4.1100 c3        1 MOL     -0.042207
    108 C38         0.9100   -0.7890    3.3940 c3        1 MOL     -0.030305
    109 C39         2.7840   -2.7750    5.1480 c3        1 MOL     -0.225817
    110 H46        -0.2460   -4.1320    2.6500 hn        1 MOL      0.304804
    111 H47         0.9020   -1.8270    1.0550 h1        1 MOL      0.122976
    112 H48         2.6740   -1.7050    2.9010 hc        1 MOL     -0.041398
    113 H49         2.0020   -4.0570    3.5740 hc        1 MOL      0.037653
    114 H50         0.8250   -3.2000    4.7020 hc        1 MOL      0.037653
    115 H51         1.0710   -0.0760    2.5840 hc        1 MOL      0.039821
    116 H52        -0.1540   -0.9780    3.5650 hc        1 MOL      0.039821
    117 H53         1.2950   -0.4380    4.3560 hc        1 MOL      0.039821
    118 H54         2.6230   -1.7610    5.5020 hc        1 MOL      0.060969
    119 H55         2.6520   -3.3930    6.0320 hc        1 MOL      0.060969
    120 H56         3.7910   -2.8380    4.7260 hc        1 MOL      0.060969
    121 N11         2.9350   -3.0820    0.2240 n         1 MOL     -0.427899
    122 C40         4.0430   -3.7800   -0.4770 c3        1 MOL     -0.062455
    123 C41         5.3130   -2.9800   -0.2540 c         1 MOL      0.634794
    124 O16         5.3170   -2.0040    0.4970 o         1 MOL     -0.463303
    125 C42         3.6360   -3.7220   -1.9390 c3        1 MOL      0.130614
    126 O17         3.6190   -2.3600   -2.3440 oh        1 MOL     -0.559669
    127 H57         2.9530   -2.0720    0.1990 hn        1 MOL      0.251010
    128 H58         3.9770   -4.8360   -0.2540 h1        1 MOL      0.112644
    129 H59         2.7020   -4.2700   -1.9950 h1        1 MOL      0.035709
    130 H60         4.2630   -4.2570   -2.6500 h1        1 MOL      0.035709
    131 H61         4.1660   -2.2770   -3.1370 ho        1 MOL      0.407863
    132 N12         6.4810   -3.3960   -0.8690 n         1 MOL     -0.694045
    133 C43         7.7480   -3.1120   -0.2460 c3        1 MOL      0.348808
    134 C44         8.2510   -1.7020   -0.4830 c         1 MOL      0.310495
    135 O18         8.6380   -0.9740    0.4420 o         1 MOL     -0.485856
    136 C45         8.7790   -4.2290   -0.5760 c3        1 MOL     -0.309075
    137 H62         6.4580   -4.0440   -1.6380 hn        1 MOL      0.317314
    138 H63         7.7100   -3.2890    0.8270 h1        1 MOL      0.058939
    139 H64         9.5890   -4.0840    0.1560 hc        1 MOL      0.090989
    140 H65         8.3810   -5.2220   -0.3880 hc        1 MOL      0.090989
    141 H66         9.2110   -4.1240   -1.5670 hc        1 MOL      0.090989
    142 N13         8.0580   -1.1750   -1.7090 n         1 MOL     -0.289591
    143 C46         8.3200    0.2370   -1.9680 c3        1 MOL      0.080542
    144 C47         7.3240    1.2340   -1.2670 c         1 MOL      0.419726
    145 O19         7.7080    2.3490   -0.8850 o         1 MOL     -0.500577
    146 C48         8.4470    0.3120   -3.4660 c3        1 MOL     -0.288569
    147 H67         7.8520   -1.8490   -2.4370 hn        1 MOL      0.246058
    148 H68         9.2690    0.4850   -1.5010 h1        1 MOL      0.106412
    149 H69         8.9370    1.2600   -3.7090 hc        1 MOL      0.080599
    150 H70         9.1080   -0.4720   -3.8290 hc        1 MOL      0.080599
    151 H71         7.4860    0.1670   -3.9540 hc        1 MOL      0.080599
    152 N14         6.1000    0.7620   -1.0430 n         1 MOL     -0.218825
    153 C49         5.1000    1.5630   -0.3270 c3        1 MOL     -0.117850
    154 C50         5.2930    1.6840    1.1850 c         1 MOL      0.424347
    155 O20         4.9540    2.6420    1.8670 o         1 MOL     -0.527039
    156 C51         3.7580    1.0970   -0.7090 c3        1 MOL      0.175893
    157 C52         2.6830    2.1550   -0.6880 c3        1 MOL     -0.076805
    158 C53         1.2620    1.5160   -0.8340 c         1 MOL      0.878036
    159 O21         0.8020    1.3230   -1.9690 o         1 MOL     -0.825062
    160 O22         0.6260    1.1760    0.1530 o         1 MOL     -0.825062
    161 H72         5.8290   -0.1740   -1.3320 hn        1 MOL      0.138950
    162 H73         5.1860    2.5820   -0.6960 h1        1 MOL      0.099889
    163 H74         3.4100    0.2320   -0.1440 hc        1 MOL     -0.044845
    164 H75         3.7600    0.8210   -1.7720 hc        1 MOL     -0.044845
    165 H76         2.9140    2.8580   -1.4850 hc        1 MOL     -0.004359
    166 H77         2.8430    2.7970    0.1670 hc        1 MOL     -0.004359
    167 N15         5.8430    0.6720    1.7310 n         1 MOL     -0.036276
    168 C54         6.4110    0.6030    3.0440 c3        1 MOL     -0.106944
    169 H78         7.0050    1.4980    3.2300 h1        1 MOL      0.062819
    170 H79         5.6130    0.5380    3.7830 h1        1 MOL      0.062819
    171 H80         7.0500   -0.2770    3.1180 h1        1 MOL      0.062819
    172 H81         6.0270   -0.1380    1.1540 hn        1 MOL      0.128825
    173 Ca1        -1.2850   -0.0270   -1.1530 Ca        1 MOL      1.795347
    174 O23         0.8230   -1.5900   -1.7480 oh        1 MOL     -0.832234
    175 H82         1.7710   -1.4750   -1.8150 ho        1 MOL      0.386347
    176 H83         0.6270   -2.3220   -2.3300 ho        1 MOL      0.386347
    177 O24        -1.6980   -0.4210   -3.7910 oh        1 MOL     -0.832234
    178 H84        -1.9730    0.3920   -4.2080 ho        1 MOL      0.386347
    179 H85        -1.9600   -1.1050   -4.4120 ho        1 MOL      0.386347
@<TRIPOS>BOND
     1    1    2 1   
     2    1    4 1   
     3    1    5 1   
     4    1    6 1   
     5    2    3 2   
     6    2    7 1   
     7    7    8 1   
     8    7   15 1   
     9    8    9 1   
    10    8   11 1   
    11    8   16 1   
    12    9   10 2   
    13    9   19 1   
    14   11   12 1   
    15   11   17 1   
    16   11   18 1   
    17   12   13 1   
    18   12   14 1   
    19   19   20 1   
    20   19   28 1   
    21   20   21 1   
    22   20   23 1   
    23   20   29 1   
    24   21   22 2   
    25   21   41 1   
    26   23   24 1   
    27   23   30 1   
    28   23   31 1   
    29   24   25 1   
    30   24   32 1   
    31   24   33 1   
    32   25   26 1   
    33   25   34 1   
    34   25   35 1   
    35   26   27 1   
    36   26   36 1   
    37   26   37 1   
    38   27   38 1   
    39   27   39 1   
    40   27   40 1   
    41   41   42 1   
    42   41   49 1   
    43   42   43 1   
    44   42   45 1   
    45   42   50 1   
    46   43   44 2   
    47   43   53 1   
    48   45   46 1   
    49   45   51 1   
    50   45   52 1   
    51   46   47 1   
    52   46   48 1   
    53   53   54 1   
    54   53   57 1   
    55   54   55 1   
    56   54   58 1   
    57   54   59 1   
    58   55   56 2   
    59   55   60 1   
    60   60   61 1   
    61   60   68 1   
    62   61   62 1   
    63   61   64 1   
    64   61   69 1   
    65   62   63 2   
    66   62   74 1   
    67   64   65 1   
    68   64   70 1   
    69   64   71 1   
    70   65   66 1   
    71   65   67 2   
    72   66   72 1   
    73   66   73 1   
    74   74   75 1   
    75   74   78 1   
    76   75   76 1   
    77   75   79 1   
    78   75   80 1   
    79   76   77 2   
    80   76   81 1   
    81   81   82 1   
    82   81   93 1   
    83   82   83 1   
    84   82   85 1   
    85   82   94 1   
    86   83   84 2   
    87   83  102 1   
    88   85   86 1   
    89   85   95 1   
    90   85   96 1   
    91   86   87 ar  
    92   86   88 ar  
    93   87   89 ar  
    94   87   97 1   
    95   88   90 ar  
    96   88   98 1   
    97   89   91 ar  
    98   89   99 1   
    99   90   91 ar  
   100   90  100 1   
   101   91   92 1   
   102   92  101 1   
   103  102  103 1   
   104  102  110 1   
   105  103  104 1   
   106  103  106 1   
   107  103  111 1   
   108  104  105 2   
   109  104  121 1   
   110  106  107 1   
   111  106  108 1   
   112  106  112 1   
   113  107  109 1   
   114  107  113 1   
   115  107  114 1   
   116  108  115 1   
   117  108  116 1   
   118  108  117 1   
   119  109  118 1   
   120  109  119 1   
   121  109  120 1   
   122  121  122 1   
   123  121  127 1   
   124  122  123 1   
   125  122  125 1   
   126  122  128 1   
   127  123  124 2   
   128  123  132 1   
   129  125  126 1   
   130  125  129 1   
   131  125  130 1   
   132  126  131 1   
   133  132  133 1   
   134  132  137 1   
   135  133  134 1   
   136  133  136 1   
   137  133  138 1   
   138  134  135 2   
   139  134  142 1   
   140  136  139 1   
   141  136  140 1   
   142  136  141 1   
   143  142  143 1   
   144  142  147 1   
   145  143  144 1   
   146  143  146 1   
   147  143  148 1   
   148  144  145 2   
   149  144  152 1   
   150  146  149 1   
   151  146  150 1   
   152  146  151 1   
   153  152  153 1   
   154  152  161 1   
   155  153  154 1   
   156  153  156 1   
   157  153  162 1   
   158  154  155 2   
   159  154  167 1   
   160  156  157 1   
   161  156  163 1   
   162  156  164 1   
   163  157  158 1   
   164  157  165 1   
   165  157  166 1   
   166  158  159 1   
   167  158  160 1   
   168  167  168 1   
   169  167  172 1   
   170  168  169 1   
   171  168  170 1   
   172  168  171 1   
   173  174  175 1   
   174  174  176 1   
   175  177  178 1   
   176  177  179 1   
@<TRIPOS>SUBSTRUCTURE
     1 MOL         1 TEMP              0 ****  ****    0 ROOT
