@<TRIPOS>MOLECULE
MOL
  183   181     1     0     0
SMALL
resp


@<TRIPOS>ATOM
      1 C1         -1.0800    0.9660    6.6730 c3        1 MOL     -0.371783
      2 C2         -1.3610    1.1120    5.1630 c         1 MOL      0.784495
      3 O1         -0.4630    1.3620    4.3810 o         1 MOL     -0.598144
      4 H1         -0.6890    1.9070    7.0620 hc        1 MOL      0.088689
      5 H2         -2.0050    0.7160    7.1920 hc        1 MOL      0.088689
      6 H3         -0.3480    0.1760    6.8330 hc        1 MOL      0.088689
      7 N1         -2.5970    1.0230    4.6810 n         1 MOL     -0.707278
      8 C3         -3.0510    1.2970    3.2630 c3        1 MOL      0.414149
      9 C4         -3.1510    2.8010    2.9290 c         1 MOL      0.364322
     10 O2         -3.9270    3.5770    3.5530 o         1 MOL     -0.564241
     11 C5         -4.3060    0.3960    2.9660 c3        1 MOL     -0.341171
     12 C6         -4.7250    0.2590    1.5160 c         1 MOL      0.880542
     13 O3         -5.7450   -0.4030    1.2510 o         1 MOL     -0.667149
     14 O4         -3.9480    0.7520    0.6280 o         1 MOL     -0.667149
     15 H4         -3.3160    0.7500    5.3310 hn        1 MOL      0.319917
     16 H5         -2.2490    1.0060    2.5930 h1        1 MOL     -0.003403
     17 H6         -5.0910    0.8240    3.5850 hc        1 MOL      0.056102
     18 H7         -4.0670   -0.6030    3.3340 hc        1 MOL      0.056102
     19 N2         -2.4270    3.2660    1.9130 n         1 MOL     -0.183799
     20 C7         -2.4280    4.6910    1.3970 c3        1 MOL     -0.014468
     21 C8         -3.3090    4.8470    0.1670 c         1 MOL      0.523909
     22 O5         -4.2460    5.6840    0.1780 o         1 MOL     -0.599103
     23 C9         -0.9600    5.2060    1.0420 c3        1 MOL      0.250093
     24 C10        -0.1840    5.0890    2.3280 c3        1 MOL      0.106226
     25 C11        -0.9150    6.5600    0.4230 c3        1 MOL     -0.288157
     26 C12         1.1730    5.7810    2.3180 c3        1 MOL     -0.228634
     27 H8         -1.8140    2.6190    1.4300 hn        1 MOL      0.035044
     28 H9         -2.8580    5.4100    2.0890 h1        1 MOL      0.053656
     29 H10        -0.6210    4.5010    0.2800 hc        1 MOL     -0.057562
     30 H11         0.1210    4.0660    2.4920 hc        1 MOL     -0.011245
     31 H12        -0.7690    5.4190    3.1930 hc        1 MOL     -0.011245
     32 H13         0.1210    6.6660    0.0940 hc        1 MOL      0.053155
     33 H14        -1.6470    6.6160   -0.3830 hc        1 MOL      0.053155
     34 H15        -1.1190    7.3230    1.1640 hc        1 MOL      0.053155
     35 H16         1.1290    6.8630    2.2850 hc        1 MOL      0.046767
     36 H17         1.6090    5.5020    3.2840 hc        1 MOL      0.046767
     37 H18         1.7980    5.3450    1.5410 hc        1 MOL      0.046767
     38 N3         -3.2990    3.9290   -0.8180 n         1 MOL     -0.287749
     39 C13        -4.1360    4.0940   -2.0460 c3        1 MOL      0.055028
     40 C14        -5.4840    3.5230   -1.8180 c         1 MOL      0.456717
     41 O6         -6.4260    3.9130   -2.5210 o         1 MOL     -0.560755
     42 C15        -3.4180    3.6760   -3.3390 c3        1 MOL     -0.291855
     43 C16        -2.8260    2.2820   -3.2990 c         1 MOL      0.811281
     44 O7         -3.4230    1.3610   -2.6920 o         1 MOL     -0.719997
     45 O8         -1.7250    2.0990   -3.8800 o         1 MOL     -0.719997
     46 H19        -2.6830    3.1390   -0.6550 hn        1 MOL      0.185773
     47 H20        -4.3330    5.1590   -2.1740 h1        1 MOL      0.077349
     48 H21        -2.6490    4.4390   -3.4510 hc        1 MOL      0.076714
     49 H22        -4.1910    3.8150   -4.1000 hc        1 MOL      0.076714
     50 N4         -5.6840    2.6620   -0.8120 n         1 MOL     -0.045614
     51 C17        -7.0180    2.1620   -0.4750 c3        1 MOL     -0.279386
     52 C18        -7.6950    1.1190   -1.3290 c         1 MOL      0.635405
     53 O9         -8.6520    1.3940   -2.0170 o         1 MOL     -0.564186
     54 H23        -4.8460    2.3580   -0.3440 hn        1 MOL      0.101962
     55 H24        -7.6830    3.0320   -0.4900 h1        1 MOL      0.086083
     56 H25        -6.9920    1.7120    0.5220 h1        1 MOL      0.086083
     57 N5         -7.0710   -0.0960   -1.2610 n         1 MOL     -0.282337
     58 C19        -7.5090   -1.3610   -1.8890 c3        1 MOL      0.051824
     59 C20        -7.6840   -2.5740   -0.9570 c         1 MOL      0.345924
     60 O10        -8.1020   -3.6540   -1.4860 o         1 MOL     -0.552017
     61 C21        -6.7030   -1.8140   -3.1530 c3        1 MOL      0.082186
     62 C22        -5.1460   -1.9420   -3.0410 c         1 MOL      0.594996
     63 O11        -4.4550   -2.1060   -4.0650 o         1 MOL     -0.699166
     64 O12        -4.6030   -1.8560   -1.9290 o         1 MOL     -0.699166
     65 H26        -6.3140   -0.2050   -0.5940 hn        1 MOL     -0.009595
     66 H27        -8.4630   -1.0400   -2.2850 h1        1 MOL      0.033967
     67 H28        -6.8500   -0.9650   -3.8270 hc        1 MOL     -0.009971
     68 H29        -7.1470   -2.6340   -3.7200 hc        1 MOL     -0.009971
     69 N6         -7.2010   -2.5840    0.2980 n         1 MOL     -0.184976
     70 C23        -7.1900   -3.7280    1.1530 c3        1 MOL     -0.101881
     71 C24        -5.7840   -4.3650    1.3460 c         1 MOL      0.553414
     72 O13        -5.7250   -5.3060    2.1750 o         1 MOL     -0.599696
     73 H30        -6.8260   -1.7650    0.7650 hn        1 MOL      0.240880
     74 H31        -7.9640   -4.4650    0.9250 h1        1 MOL      0.062702
     75 H32        -7.4430   -3.2950    2.1260 h1        1 MOL      0.062702
     76 N7         -4.6960   -3.8970    0.6820 n         1 MOL     -0.303959
     77 C25        -3.3360   -4.4730    0.9240 c3        1 MOL      0.057705
     78 C26        -2.3500   -3.3170    1.1150 c         1 MOL      0.720631
     79 O14        -2.6900   -2.1370    0.9440 o         1 MOL     -0.700943
     80 C27        -2.8300   -5.4040   -0.2050 c3        1 MOL     -0.169367
     81 C28        -3.0600   -4.8820   -1.7090 c3        1 MOL     -0.175639
     82 C29        -2.0130   -3.8950   -2.2580 c         1 MOL      0.578310
     83 N8         -1.4440   -4.1930   -3.3610 n         1 MOL     -0.669207
     84 O15        -1.7850   -2.8320   -1.6880 o         1 MOL     -0.590544
     85 H33        -4.7230   -3.0770    0.0880 hn        1 MOL      0.242157
     86 H34        -3.2760   -4.8870    1.9360 h1        1 MOL      0.047538
     87 H35        -3.3360   -6.3700   -0.0980 hc        1 MOL      0.051535
     88 H36        -1.7720   -5.6590   -0.1130 hc        1 MOL      0.051535
     89 H37        -4.0560   -4.4810   -1.8940 hc        1 MOL      0.091586
     90 H38        -3.2450   -5.7630   -2.3230 hc        1 MOL      0.091586
     91 H39        -1.6850   -5.0670   -3.8290 hn        1 MOL      0.336485
     92 H40        -0.8410   -3.5570   -3.8620 hn        1 MOL      0.336485
     93 N9         -1.1990   -3.6850    1.7220 n         1 MOL     -0.470561
     94 C30         0.0380   -2.8890    1.9350 c3        1 MOL      0.020577
     95 C31         1.0890   -3.2880    0.9090 c         1 MOL      0.444764
     96 O16         1.6810   -4.3580    1.0910 o         1 MOL     -0.579886
     97 C32         0.6340   -2.9720    3.3540 c3        1 MOL      0.362930
     98 C33         1.6700   -1.8990    3.5940 c3        1 MOL     -0.299007
     99 C34        -0.4050   -2.8160    4.4690 c3        1 MOL     -0.299007
    100 H41        -1.1120   -4.6970    1.7090 hn        1 MOL      0.246286
    101 H42        -0.1670   -1.8170    1.8870 h1        1 MOL      0.088285
    102 H43         1.1940   -3.8850    3.5610 hc        1 MOL     -0.062370
    103 H44         2.0760   -1.9090    4.6100 hc        1 MOL      0.052554
    104 H45         2.4890   -1.9820    2.8810 hc        1 MOL      0.052554
    105 H46         1.2090   -0.9350    3.4050 hc        1 MOL      0.052554
    106 H47        -1.0170   -3.7090    4.4760 hc        1 MOL      0.052554
    107 H48         0.0260   -2.6480    5.4500 hc        1 MOL      0.052554
    108 H49        -1.1470   -2.0200    4.3290 hc        1 MOL      0.052554
    109 N10         1.4930   -2.3490    0.0370 n         1 MOL     -0.273203
    110 C35         2.6650   -2.5340   -0.8280 c3        1 MOL      0.245818
    111 C36         3.9960   -2.1130   -0.2140 c         1 MOL      0.313401
    112 O17         4.0390   -1.3790    0.7810 o         1 MOL     -0.202356
    113 C37         2.3070   -2.0380   -2.2070 c3        1 MOL     -0.242793
    114 C38         2.8420   -0.6660   -2.5090 c         1 MOL      0.315665
    115 N11         1.9400    0.2710   -2.6190 n         1 MOL     -0.488297
    116 O18         4.0380   -0.5530   -2.6590 o         1 MOL     -0.452756
    117 H50         0.9870   -1.4960   -0.1250 hn        1 MOL      0.146581
    118 H51         2.6970   -3.6150   -0.9650 h1        1 MOL      0.002980
    119 H52         1.2460   -2.1180   -2.4280 hc        1 MOL      0.095881
    120 H53         2.7170   -2.8030   -2.8650 hc        1 MOL      0.095881
    121 H54         0.9850   -0.0550   -2.6950 hn        1 MOL      0.340026
    122 H55         2.2360    1.2000   -2.9050 hn        1 MOL      0.340026
    123 N12         5.1350   -2.6360   -0.7880 n         1 MOL     -0.544237
    124 C39         6.5040   -2.2870   -0.3170 c3        1 MOL      0.085034
    125 C40         6.7740   -0.7610   -0.0830 c         1 MOL      0.561773
    126 O19         7.4270   -0.3860    0.8610 o         1 MOL     -0.553688
    127 C41         7.4660   -2.7840   -1.3850 c3        1 MOL     -0.051260
    128 C42         8.9180   -2.4270   -0.9960 ca        1 MOL     -0.103787
    129 C43         9.5420   -3.1500    0.0590 ca        1 MOL     -0.083247
    130 C44         9.4650   -1.2630   -1.5090 ca        1 MOL     -0.083247
    131 C45        10.7210   -2.6660    0.6160 ca        1 MOL     -0.340896
    132 C46        10.7630   -0.8670   -0.9990 ca        1 MOL     -0.340896
    133 C47        11.3320   -1.5190    0.0650 ca        1 MOL      0.464813
    134 O20        12.6000   -1.1670    0.3940 oh        1 MOL     -0.549302
    135 H56         5.1040   -3.0740   -1.6990 hn        1 MOL      0.293230
    136 H57         6.6680   -2.7410    0.6620 h1        1 MOL      0.062176
    137 H58         7.2090   -2.3280   -2.3450 hc        1 MOL      0.044748
    138 H59         7.4030   -3.8630   -1.5560 hc        1 MOL      0.044748
    139 H60         9.0700   -4.0240    0.4740 ha        1 MOL      0.124327
    140 H61         9.0270   -0.5810   -2.2280 ha        1 MOL      0.124327
    141 H62        11.1970   -3.1490    1.4580 ha        1 MOL      0.159920
    142 H63        11.1920    0.0680   -1.3330 ha        1 MOL      0.159920
    143 H64        12.8500   -0.4560   -0.2070 ho        1 MOL      0.363819
    144 N13         6.1660    0.0730   -0.9110 n         1 MOL     -0.131371
    145 C48         6.2790    1.5600   -0.7910 c3        1 MOL     -0.091867
    146 C49         5.3760    2.1290    0.2890 c         1 MOL      0.414305
    147 O21         5.7360    3.0220    1.0220 o         1 MOL     -0.518688
    148 C50         6.0010    2.3140   -2.1020 c3        1 MOL      0.198033
    149 C51         7.1730    2.3450   -3.0910 c3        1 MOL     -0.143877
    150 C52         6.9870    3.3690   -4.2540 c         1 MOL      0.685653
    151 O22         6.2020    4.3550   -4.0910 o         1 MOL     -0.736154
    152 O23         7.6290    3.2070   -5.3110 o         1 MOL     -0.736154
    153 H65         5.5760   -0.2930   -1.6430 hn        1 MOL      0.122466
    154 H66         7.3250    1.7580   -0.5270 h1        1 MOL      0.069772
    155 H67         5.6960    3.3190   -1.8150 hc        1 MOL     -0.036170
    156 H68         5.1560    1.8640   -2.6250 hc        1 MOL     -0.036170
    157 H69         7.3480    1.3570   -3.5080 hc        1 MOL     -0.014084
    158 H70         8.1180    2.6220   -2.6230 hc        1 MOL     -0.014084
    159 N14         4.2640    1.4610    0.5490 n         1 MOL     -0.200267
    160 C53         3.3900    1.7810    1.6560 c3        1 MOL     -0.070253
    161 C54         4.0800    1.4520    3.0270 c         1 MOL      0.316622
    162 O24         3.8740    2.1680    4.0800 o         1 MOL     -0.547982
    163 C55         1.9800    1.1130    1.4890 c3        1 MOL     -0.004024
    164 C56         1.2040    1.8160    0.4600 c3        1 MOL      0.083963
    165 C57        -0.1190    1.0660    0.1280 c         1 MOL      0.604825
    166 O25        -1.1580    1.7040   -0.1420 o         1 MOL     -0.630079
    167 O26        -0.1280   -0.1530   -0.1570 o         1 MOL     -0.630079
    168 H71         4.0790    0.5780    0.0780 hn        1 MOL      0.135164
    169 H72         3.3590    2.8660    1.6050 h1        1 MOL      0.110605
    170 H73         1.4840    1.3460    2.4310 hc        1 MOL      0.065545
    171 H74         2.0600    0.0740    1.1840 hc        1 MOL      0.065545
    172 H75         1.8240    1.9930   -0.4240 hc        1 MOL     -0.023345
    173 H76         1.0260    2.8350    0.8100 hc        1 MOL     -0.023345
    174 N15         4.7840    0.3360    3.0190 n         1 MOL      0.072444
    175 C58         5.6090   -0.3280    4.1000 c3        1 MOL     -0.260622
    176 H77         5.3070    0.0560    5.0750 h1        1 MOL      0.091573
    177 H78         5.4490   -1.4060    4.0700 h1        1 MOL      0.091573
    178 H79         6.6650   -0.1120    3.9360 h1        1 MOL      0.091573
    179 H80         4.9870   -0.2210    2.1980 hn        1 MOL     -0.000525
    180 Ca1        -2.5800   -0.3970   -1.2030 Ca        1 MOL      1.697555
    181 O27        -0.8560   -0.1980   -3.2980 oh        1 MOL     -0.879631
    182 H81        -1.0270    0.6320   -3.7400 ho        1 MOL      0.408976
    183 H82        -1.1170   -0.8690   -3.9360 ho        1 MOL      0.408976
@<TRIPOS>BOND
     1    1    2 1   
     2    1    4 1   
     3    1    5 1   
     4    1    6 1   
     5    2    3 2   
     6    2    7 1   
     7    7    8 1   
     8    7   15 1   
     9    8    9 1   
    10    8   11 1   
    11    8   16 1   
    12    9   10 2   
    13    9   19 1   
    14   11   12 1   
    15   11   17 1   
    16   11   18 1   
    17   12   13 1   
    18   12   14 1   
    19   19   20 1   
    20   19   27 1   
    21   20   21 1   
    22   20   23 1   
    23   20   28 1   
    24   21   22 2   
    25   21   38 1   
    26   23   24 1   
    27   23   25 1   
    28   23   29 1   
    29   24   26 1   
    30   24   30 1   
    31   24   31 1   
    32   25   32 1   
    33   25   33 1   
    34   25   34 1   
    35   26   35 1   
    36   26   36 1   
    37   26   37 1   
    38   38   39 1   
    39   38   46 1   
    40   39   40 1   
    41   39   42 1   
    42   39   47 1   
    43   40   41 2   
    44   40   50 1   
    45   42   43 1   
    46   42   48 1   
    47   42   49 1   
    48   43   44 1   
    49   43   45 1   
    50   50   51 1   
    51   50   54 1   
    52   51   52 1   
    53   51   55 1   
    54   51   56 1   
    55   52   53 2   
    56   52   57 1   
    57   57   58 1   
    58   57   65 1   
    59   58   59 1   
    60   58   61 1   
    61   58   66 1   
    62   59   60 2   
    63   59   69 1   
    64   61   62 1   
    65   61   67 1   
    66   61   68 1   
    67   62   63 1   
    68   62   64 1   
    69   69   70 1   
    70   69   73 1   
    71   70   71 1   
    72   70   74 1   
    73   70   75 1   
    74   71   72 2   
    75   71   76 1   
    76   76   77 1   
    77   76   85 1   
    78   77   78 1   
    79   77   80 1   
    80   77   86 1   
    81   78   79 2   
    82   78   93 1   
    83   80   81 1   
    84   80   87 1   
    85   80   88 1   
    86   81   82 1   
    87   81   89 1   
    88   81   90 1   
    89   82   83 1   
    90   82   84 2   
    91   83   91 1   
    92   83   92 1   
    93   93   94 1   
    94   93  100 1   
    95   94   95 1   
    96   94   97 1   
    97   94  101 1   
    98   95   96 2   
    99   95  109 1   
   100   97   98 1   
   101   97   99 1   
   102   97  102 1   
   103   98  103 1   
   104   98  104 1   
   105   98  105 1   
   106   99  106 1   
   107   99  107 1   
   108   99  108 1   
   109  109  110 1   
   110  109  117 1   
   111  110  111 1   
   112  110  113 1   
   113  110  118 1   
   114  111  112 2   
   115  111  123 1   
   116  113  114 1   
   117  113  119 1   
   118  113  120 1   
   119  114  115 1   
   120  114  116 2   
   121  115  121 1   
   122  115  122 1   
   123  123  124 1   
   124  123  135 1   
   125  124  125 1   
   126  124  127 1   
   127  124  136 1   
   128  125  126 2   
   129  125  144 1   
   130  127  128 1   
   131  127  137 1   
   132  127  138 1   
   133  128  129 ar  
   134  128  130 ar  
   135  129  131 ar  
   136  129  139 1   
   137  130  132 ar  
   138  130  140 1   
   139  131  133 ar  
   140  131  141 1   
   141  132  133 ar  
   142  132  142 1   
   143  133  134 1   
   144  134  143 1   
   145  144  145 1   
   146  144  153 1   
   147  145  146 1   
   148  145  148 1   
   149  145  154 1   
   150  146  147 2   
   151  146  159 1   
   152  148  149 1   
   153  148  155 1   
   154  148  156 1   
   155  149  150 1   
   156  149  157 1   
   157  149  158 1   
   158  150  151 1   
   159  150  152 1   
   160  159  160 1   
   161  159  168 1   
   162  160  161 1   
   163  160  163 1   
   164  160  169 1   
   165  161  162 2   
   166  161  174 1   
   167  163  164 1   
   168  163  170 1   
   169  163  171 1   
   170  164  165 1   
   171  164  172 1   
   172  164  173 1   
   173  165  166 1   
   174  165  167 1   
   175  174  175 1   
   176  174  179 1   
   177  175  176 1   
   178  175  177 1   
   179  175  178 1   
   180  181  182 1   
   181  181  183 1   
@<TRIPOS>SUBSTRUCTURE
     1 MOL         1 TEMP              0 ****  ****    0 ROOT
