@<TRIPOS>MOLECULE
MOL
  189   185     1     0     0
SMALL
resp


@<TRIPOS>ATOM
      1 C1         -0.1720   -4.2210    5.9290 c3        1 MOL     -0.458157
      2 C2          0.6270   -3.6010    4.6970 c         1 MOL      0.728069
      3 O1          0.8830   -2.4320    4.6970 o         1 MOL     -0.578946
      4 H1         -0.5410   -3.4150    6.5650 hc        1 MOL      0.117328
      5 H2         -1.0140   -4.8050    5.5590 hc        1 MOL      0.117328
      6 H3          0.4920   -4.8640    6.5070 hc        1 MOL      0.117328
      7 N1          0.9420   -4.4110    3.6220 n         1 MOL     -0.559290
      8 C3          1.7220   -4.0970    2.4060 c3        1 MOL      0.153895
      9 C4          1.5870   -5.1190    1.2290 c         1 MOL      0.763061
     10 O2          1.7070   -6.3210    1.4600 o         1 MOL     -0.627558
     11 C5          3.2000   -4.0060    2.7200 c3        1 MOL     -0.340418
     12 C6          4.0490   -3.4250    1.5260 c         1 MOL      0.762950
     13 O3          5.2740   -3.5720    1.4890 o         1 MOL     -0.701401
     14 O4          3.5030   -2.9440    0.5220 o         1 MOL     -0.701401
     15 H4          0.7250   -5.3870    3.6940 hn        1 MOL      0.266582
     16 H5          1.3270   -3.1500    2.0420 h1        1 MOL     -0.018604
     17 H6          3.5530   -5.0040    3.0040 hc        1 MOL      0.078016
     18 H7          3.3360   -3.4400    3.6360 hc        1 MOL      0.078016
     19 N2          1.2210   -4.6690    0.0150 n         1 MOL     -0.536724
     20 C7          1.1150   -5.4490   -1.1950 c3        1 MOL      0.006553
     21 C8          2.3800   -5.3010   -2.0710 c         1 MOL      0.659898
     22 O5          2.6390   -6.2950   -2.7370 o         1 MOL     -0.598133
     23 C9         -0.1860   -5.0460   -1.9470 c3        1 MOL      0.305079
     24 C10        -1.3370   -5.4300   -0.9720 c3        1 MOL      0.041159
     25 C11        -0.2440   -5.8540   -3.3090 c3        1 MOL     -0.491505
     26 C12        -2.6710   -4.8160   -1.3480 c3        1 MOL     -0.385820
     27 H8          1.2700   -3.6740   -0.1020 hn        1 MOL      0.133330
     28 H9          1.0210   -6.5090   -0.9380 h1        1 MOL      0.039053
     29 H10        -0.1930   -3.9690   -2.0910 hc        1 MOL      0.014851
     30 H11        -1.1240   -5.3000    0.0870 hc        1 MOL     -0.004600
     31 H12        -1.4570   -6.4930   -1.1960 hc        1 MOL     -0.004600
     32 H13         0.5630   -5.5550   -3.9780 hc        1 MOL      0.111152
     33 H14        -0.1120   -6.8890   -3.0160 hc        1 MOL      0.111152
     34 H15        -1.2000   -5.5860   -3.7650 hc        1 MOL      0.111152
     35 H16        -2.8030   -5.0420   -2.4050 hc        1 MOL      0.098791
     36 H17        -3.4380   -5.2520   -0.7070 hc        1 MOL      0.098791
     37 H18        -2.5850   -3.7530   -1.1100 hc        1 MOL      0.098791
     38 N3          2.9900   -4.0790   -2.1000 n         1 MOL     -0.635234
     39 C13         3.7450   -3.6690   -3.2870 c3        1 MOL     -0.051070
     40 C14         5.1530   -3.0760   -2.9520 c         1 MOL      0.435335
     41 O6          5.8450   -2.8220   -3.8920 o         1 MOL     -0.515445
     42 C15         2.8670   -2.7440   -4.0570 c3        1 MOL     -0.013822
     43 C16         2.2060   -1.5470   -3.2560 c         1 MOL      0.621703
     44 O7          2.5420   -1.3110   -2.0820 o         1 MOL     -0.678010
     45 O8          1.4930   -0.7710   -3.8720 o         1 MOL     -0.678010
     46 H19         2.8280   -3.4210   -1.3600 hn        1 MOL      0.484120
     47 H20         3.9140   -4.5400   -3.9220 h1        1 MOL      0.107291
     48 H21         2.0140   -3.3550   -4.3490 hc        1 MOL      0.014665
     49 H22         3.2730   -2.5130   -5.0440 hc        1 MOL      0.014665
     50 N4          5.5400   -2.9400   -1.6450 n         1 MOL     -0.194472
     51 C17         6.9300   -2.5970   -1.2740 c3        1 MOL     -0.168035
     52 C18         7.4490   -1.2100   -1.5490 c         1 MOL      0.414967
     53 O9          8.5960   -1.0650   -2.0110 o         1 MOL     -0.567567
     54 H23         4.8910   -3.1190   -0.8990 hn        1 MOL      0.186056
     55 H24         7.4870   -3.2500   -1.9430 h1        1 MOL      0.106459
     56 H25         7.1620   -2.9820   -0.2840 h1        1 MOL      0.106459
     57 N5          6.6160   -0.1490   -1.3640 n         1 MOL     -0.105351
     58 C19         6.8570    1.1970   -1.9720 c3        1 MOL      0.149017
     59 C20         7.1870    2.3420   -0.9590 c         1 MOL      0.267797
     60 O10         7.7330    3.4120   -1.2390 o         1 MOL     -0.509366
     61 C21         5.7520    1.7060   -2.8760 c3        1 MOL     -0.183605
     62 C22         4.3790    1.7000   -2.2550 c         1 MOL      0.836631
     63 O11         4.1360    1.3040   -1.0910 o         1 MOL     -0.714634
     64 O12         3.4280    2.2150   -2.8520 o         1 MOL     -0.714634
     65 H26         5.7030   -0.2330   -0.9440 hn        1 MOL     -0.009225
     66 H27         7.7910    1.0920   -2.5160 h1        1 MOL      0.064063
     67 H28         5.7190    1.0030   -3.7050 hc        1 MOL      0.043259
     68 H29         5.9680    2.6950   -3.2720 hc        1 MOL      0.043259
     69 N6          6.9860    2.0280    0.3310 n         1 MOL     -0.044286
     70 C23         7.2500    2.8660    1.4650 c3        1 MOL     -0.091915
     71 C24         6.1070    3.8160    1.8230 c         1 MOL      0.473974
     72 O13         6.3270    4.7480    2.5990 o         1 MOL     -0.570676
     73 H30         6.9980    1.0440    0.5710 hn        1 MOL      0.107584
     74 H31         8.2040    3.3640    1.3320 h1        1 MOL      0.060945
     75 H32         7.4550    2.2490    2.3400 h1        1 MOL      0.060945
     76 N7          4.9250    3.5580    1.2440 n         1 MOL     -0.295325
     77 C25         3.6540    4.2820    1.3550 c3        1 MOL      0.137488
     78 C26         2.4860    3.2970    1.6390 c         1 MOL      0.329832
     79 O14         2.5920    2.0830    1.3930 o         1 MOL     -0.530841
     80 C27         3.4070    5.1550    0.1100 c3        1 MOL     -0.225964
     81 C28         4.5830    6.1540   -0.1130 c3        1 MOL     -0.159577
     82 C29         4.2090    7.2450   -1.1550 c         1 MOL      0.652051
     83 N8          5.1620    8.0900   -1.5330 n         1 MOL     -0.811851
     84 O15         3.0710    7.3680   -1.6460 o         1 MOL     -0.541734
     85 H33         4.8700    2.7730    0.6140 hn        1 MOL      0.179620
     86 H34         3.6850    4.9240    2.2370 h1        1 MOL      0.019808
     87 H35         2.4610    5.6820    0.2370 hc        1 MOL      0.102077
     88 H36         3.1880    4.5760   -0.7880 hc        1 MOL      0.102077
     89 H37         5.5400    5.6630   -0.2650 hc        1 MOL      0.079798
     90 H38         4.8030    6.6880    0.8150 hc        1 MOL      0.079798
     91 H39         6.1410    7.9670   -1.3200 hn        1 MOL      0.353884
     92 H40         4.9290    8.8240   -2.1890 hn        1 MOL      0.353884
     93 N9          1.3470    3.7900    2.1100 n         1 MOL     -0.215288
     94 C30         0.0730    3.0170    2.4670 c3        1 MOL      0.020597
     95 C31        -1.0370    3.3200    1.4170 c         1 MOL      0.327683
     96 O16        -1.5570    4.4350    1.4000 o         1 MOL     -0.560074
     97 C32        -0.4080    3.3190    3.8630 c3        1 MOL      0.307905
     98 C33        -1.6830    2.5140    4.3090 c3        1 MOL     -0.250838
     99 C34         0.5710    2.9780    4.9280 c3        1 MOL     -0.250838
    100 H41         1.3750    4.7710    2.3230 hn        1 MOL      0.215853
    101 H42         0.2800    1.9550    2.3650 h1        1 MOL      0.051935
    102 H43        -0.6240    4.3780    3.9540 hc        1 MOL     -0.039949
    103 H44        -2.5640    2.8070    3.7480 hc        1 MOL      0.042785
    104 H45        -1.5390    1.4270    4.3040 hc        1 MOL      0.042785
    105 H46        -1.9030    2.8290    5.3350 hc        1 MOL      0.042785
    106 H47         0.4050    3.4200    5.9070 hc        1 MOL      0.042785
    107 H48         0.6820    1.8940    4.9990 hc        1 MOL      0.042785
    108 H49         1.5150    3.4590    4.6720 hc        1 MOL      0.042785
    109 N10        -1.3450    2.3850    0.5630 n         1 MOL     -0.097694
    110 C35        -2.4850    2.4550   -0.3210 c3        1 MOL      0.053175
    111 C36        -3.7900    2.4750    0.4930 c         1 MOL      0.425780
    112 O17        -3.7920    1.9790    1.6280 o         1 MOL     -0.445517
    113 C37        -2.3450    1.3870   -1.3360 c3        1 MOL     -0.125366
    114 C38        -3.4730    1.4400   -2.3500 c         1 MOL      0.650526
    115 N11        -3.3520    2.3520   -3.3080 n         1 MOL     -0.744110
    116 O18        -4.3290    0.6150   -2.3410 o         1 MOL     -0.493890
    117 H50        -0.7680    1.5650    0.5940 hn        1 MOL      0.125204
    118 H51        -2.4220    3.3890   -0.8690 h1        1 MOL      0.030748
    119 H52        -2.2940    0.3690   -0.9370 hc        1 MOL      0.069250
    120 H53        -1.4570    1.6420   -1.9090 hc        1 MOL      0.069250
    121 H54        -2.7260    3.1360   -3.1840 hn        1 MOL      0.346344
    122 H55        -3.9980    2.3930   -4.0760 hn        1 MOL      0.346344
    123 N12        -4.9360    2.8130   -0.0940 n         1 MOL     -0.390463
    124 C39        -6.3180    2.5820    0.4880 c3        1 MOL      0.188922
    125 C40        -6.7680    1.0870    0.6630 c         1 MOL      0.423908
    126 O19        -7.5030    0.7770    1.5950 o         1 MOL     -0.576845
    127 C41        -7.4270    3.3690   -0.2660 c3        1 MOL     -0.152909
    128 C42        -7.3690    3.0300   -1.7310 ca        1 MOL      0.178117
    129 C43        -6.9450    4.0410   -2.6740 ca        1 MOL     -0.246718
    130 C44        -8.0190    1.8630   -2.1960 ca        1 MOL     -0.246718
    131 C45        -7.2190    3.8250   -4.0580 ca        1 MOL     -0.259387
    132 C46        -8.1740    1.6240   -3.5440 ca        1 MOL     -0.259387
    133 C47        -7.7570    2.5950   -4.4800 ca        1 MOL      0.421721
    134 O20        -8.0260    2.4250   -5.8010 oh        1 MOL     -0.594798
    135 H56        -4.9860    3.0190   -1.0760 hn        1 MOL      0.128984
    136 H57        -6.4440    3.0290    1.4730 h1        1 MOL      0.041279
    137 H58        -7.3800    4.4430   -0.1090 hc        1 MOL      0.048174
    138 H59        -8.3850    3.0930    0.1850 hc        1 MOL      0.048174
    139 H60        -6.4250    4.9300   -2.3520 ha        1 MOL      0.156097
    140 H61        -8.5690    1.2410   -1.4990 ha        1 MOL      0.156097
    141 H62        -6.9760    4.5150   -4.8560 ha        1 MOL      0.123578
    142 H63        -8.7330    0.7830   -3.9130 ha        1 MOL      0.123578
    143 H64        -8.6180    1.6940   -5.9800 ho        1 MOL      0.421190
    144 N13        -6.0900    0.1830   -0.0690 n         1 MOL      0.020399
    145 C48        -6.2470   -1.2900    0.1030 c3        1 MOL     -0.263122
    146 C49        -5.4970   -1.8950    1.2620 c         1 MOL      0.410201
    147 O21        -5.7020   -3.0300    1.6890 o         1 MOL     -0.513969
    148 C50        -5.9640   -1.9550   -1.1940 c3        1 MOL      0.283627
    149 C51        -6.9840   -1.6200   -2.3170 c3        1 MOL     -0.290363
    150 C52        -8.3400   -2.2660   -1.9170 c         1 MOL      0.664110
    151 O22        -9.3910   -1.7110   -2.2410 o         1 MOL     -0.702858
    152 O23        -8.4220   -3.2100   -1.1220 o         1 MOL     -0.702858
    153 H65        -5.5970    0.4420   -0.9120 hn        1 MOL      0.130862
    154 H66        -7.3040   -1.4860    0.2910 h1        1 MOL      0.194957
    155 H67        -5.9490   -3.0290   -1.0390 hc        1 MOL     -0.050062
    156 H68        -4.9890   -1.6620   -1.5720 hc        1 MOL     -0.050062
    157 H69        -6.6820   -2.0550   -3.2630 hc        1 MOL      0.040467
    158 H70        -7.0060   -0.5540   -2.5550 hc        1 MOL      0.040467
    159 N14        -4.5910   -1.1140    1.7990 n         1 MOL     -0.176609
    160 C53        -3.7240   -1.3850    2.9440 c3        1 MOL      0.035449
    161 C54        -4.2810   -0.7400    4.2470 c         1 MOL      0.404467
    162 O24        -4.2140   -1.3510    5.3440 o         1 MOL     -0.570563
    163 C55        -2.2200   -0.9220    2.6390 c3        1 MOL     -0.102168
    164 C56        -1.5870   -1.8740    1.6490 c3        1 MOL     -0.021693
    165 C57        -0.3800   -1.2590    0.8660 c         1 MOL      0.726936
    166 O25         0.2780   -1.9390    0.0340 o         1 MOL     -0.714449
    167 O26        -0.0590   -0.1000    1.0350 o         1 MOL     -0.714449
    168 H71        -4.4080   -0.2280    1.3660 hn        1 MOL      0.051342
    169 H72        -3.6840   -2.4360    3.2440 h1        1 MOL      0.049206
    170 H73        -1.7570   -0.9110    3.6220 hc        1 MOL      0.068991
    171 H74        -2.3350    0.0650    2.2130 hc        1 MOL      0.068991
    172 H75        -2.3090   -2.1290    0.8640 hc        1 MOL      0.039644
    173 H76        -1.3880   -2.8170    2.1530 hc        1 MOL      0.039644
    174 N15        -4.8860    0.4230    4.1530 n         1 MOL     -0.046322
    175 C58        -5.3730    1.1880    5.3200 c3        1 MOL     -0.179832
    176 H77        -4.7150    1.0110    6.1710 h1        1 MOL      0.070364
    177 H78        -5.3800    2.2510    5.0810 h1        1 MOL      0.070364
    178 H79        -6.3830    0.8660    5.5710 h1        1 MOL      0.070364
    179 H80        -5.1780    0.7620    3.2550 hn        1 MOL      0.138080
    180 Ca1         2.4940   -0.2910    0.2540 Ca        1 MOL      1.795011
    181 O27         2.2910   -0.6850    2.9480 oh        1 MOL     -0.876504
    182 H81         2.8370   -0.4140    3.6770 ho        1 MOL      0.420764
    183 H82         1.4620   -0.9420    3.3450 ho        1 MOL      0.420764
    184 O28         1.2370    1.1950   -1.7320 oh        1 MOL     -0.876504
    185 H83         1.9410    1.7940   -1.9720 ho        1 MOL      0.420764
    186 H84         1.2500    0.5240   -2.4250 ho        1 MOL      0.420764
    187 O29         4.9440   -0.6580    1.3750 oh        1 MOL     -0.876504
    188 H85         5.4460   -0.2060    2.0600 ho        1 MOL      0.420764
    189 H86         5.3580   -1.5210    1.3120 ho        1 MOL      0.420764
@<TRIPOS>BOND
     1    1    2 1   
     2    1    4 1   
     3    1    5 1   
     4    1    6 1   
     5    2    3 2   
     6    2    7 1   
     7    7    8 1   
     8    7   15 1   
     9    8    9 1   
    10    8   11 1   
    11    8   16 1   
    12    9   10 2   
    13    9   19 1   
    14   11   12 1   
    15   11   17 1   
    16   11   18 1   
    17   12   13 1   
    18   12   14 1   
    19   19   20 1   
    20   19   27 1   
    21   20   21 1   
    22   20   23 1   
    23   20   28 1   
    24   21   22 2   
    25   21   38 1   
    26   23   24 1   
    27   23   25 1   
    28   23   29 1   
    29   24   26 1   
    30   24   30 1   
    31   24   31 1   
    32   25   32 1   
    33   25   33 1   
    34   25   34 1   
    35   26   35 1   
    36   26   36 1   
    37   26   37 1   
    38   38   39 1   
    39   38   46 1   
    40   39   40 1   
    41   39   42 1   
    42   39   47 1   
    43   40   41 2   
    44   40   50 1   
    45   42   43 1   
    46   42   48 1   
    47   42   49 1   
    48   43   44 1   
    49   43   45 1   
    50   50   51 1   
    51   50   54 1   
    52   51   52 1   
    53   51   55 1   
    54   51   56 1   
    55   52   53 2   
    56   52   57 1   
    57   57   58 1   
    58   57   65 1   
    59   58   59 1   
    60   58   61 1   
    61   58   66 1   
    62   59   60 2   
    63   59   69 1   
    64   61   62 1   
    65   61   67 1   
    66   61   68 1   
    67   62   63 1   
    68   62   64 1   
    69   69   70 1   
    70   69   73 1   
    71   70   71 1   
    72   70   74 1   
    73   70   75 1   
    74   71   72 2   
    75   71   76 1   
    76   76   77 1   
    77   76   85 1   
    78   77   78 1   
    79   77   80 1   
    80   77   86 1   
    81   78   79 2   
    82   78   93 1   
    83   80   81 1   
    84   80   87 1   
    85   80   88 1   
    86   81   82 1   
    87   81   89 1   
    88   81   90 1   
    89   82   83 1   
    90   82   84 2   
    91   83   91 1   
    92   83   92 1   
    93   93   94 1   
    94   93  100 1   
    95   94   95 1   
    96   94   97 1   
    97   94  101 1   
    98   95   96 2   
    99   95  109 1   
   100   97   98 1   
   101   97   99 1   
   102   97  102 1   
   103   98  103 1   
   104   98  104 1   
   105   98  105 1   
   106   99  106 1   
   107   99  107 1   
   108   99  108 1   
   109  109  110 1   
   110  109  117 1   
   111  110  111 1   
   112  110  113 1   
   113  110  118 1   
   114  111  112 2   
   115  111  123 1   
   116  113  114 1   
   117  113  119 1   
   118  113  120 1   
   119  114  115 1   
   120  114  116 2   
   121  115  121 1   
   122  115  122 1   
   123  123  124 1   
   124  123  135 1   
   125  124  125 1   
   126  124  127 1   
   127  124  136 1   
   128  125  126 2   
   129  125  144 1   
   130  127  128 1   
   131  127  137 1   
   132  127  138 1   
   133  128  129 ar  
   134  128  130 ar  
   135  129  131 ar  
   136  129  139 1   
   137  130  132 ar  
   138  130  140 1   
   139  131  133 ar  
   140  131  141 1   
   141  132  133 ar  
   142  132  142 1   
   143  133  134 1   
   144  134  143 1   
   145  144  145 1   
   146  144  153 1   
   147  145  146 1   
   148  145  148 1   
   149  145  154 1   
   150  146  147 2   
   151  146  159 1   
   152  148  149 1   
   153  148  155 1   
   154  148  156 1   
   155  149  150 1   
   156  149  157 1   
   157  149  158 1   
   158  150  151 1   
   159  150  152 1   
   160  159  160 1   
   161  159  168 1   
   162  160  161 1   
   163  160  163 1   
   164  160  169 1   
   165  161  162 2   
   166  161  174 1   
   167  163  164 1   
   168  163  170 1   
   169  163  171 1   
   170  164  165 1   
   171  164  172 1   
   172  164  173 1   
   173  165  166 1   
   174  165  167 1   
   175  174  175 1   
   176  174  179 1   
   177  175  176 1   
   178  175  177 1   
   179  175  178 1   
   180  181  182 1   
   181  181  183 1   
   182  184  185 1   
   183  184  186 1   
   184  187  188 1   
   185  187  189 1   
@<TRIPOS>SUBSTRUCTURE
     1 MOL         1 TEMP              0 ****  ****    0 ROOT
