@<TRIPOS>MOLECULE
MOL
  183   181     1     0     0
SMALL
resp


@<TRIPOS>ATOM
      1 C1         -0.7530    2.1790    6.1290 c3        1 MOL     -0.278681
      2 C2         -0.9890    2.0280    4.6280 c         1 MOL      0.764652
      3 O1         -0.1300    2.3380    3.7970 o         1 MOL     -0.609560
      4 H1         -1.6970    2.4040    6.6250 hc        1 MOL      0.057613
      5 H2         -0.3460    1.2490    6.5290 hc        1 MOL      0.057613
      6 H3         -0.0470    2.9910    6.3070 hc        1 MOL      0.057613
      7 N1         -2.2120    1.6040    4.2660 n         1 MOL     -0.621358
      8 C3         -2.7300    1.4090    2.9220 c3        1 MOL      0.098235
      9 C4         -3.3050    2.6630    2.2540 c         1 MOL      0.743906
     10 O2         -4.2310    3.1920    2.7670 o         1 MOL     -0.581494
     11 C5         -3.7980    0.3290    3.0380 c3        1 MOL     -0.395139
     12 C6         -4.6570    0.1490    1.8350 c         1 MOL      0.751178
     13 O3         -5.8290   -0.3750    1.9280 o         1 MOL     -0.627861
     14 O4         -4.1310    0.4540    0.6870 o         1 MOL     -0.627861
     15 H4         -2.7370    1.1800    5.0130 hn        1 MOL      0.326876
     16 H5         -1.9720    1.0480    2.2280 h1        1 MOL      0.057657
     17 H6         -4.4960    0.6540    3.8080 hc        1 MOL      0.090576
     18 H7         -3.4350   -0.6430    3.3720 hc        1 MOL      0.090576
     19 N2         -2.6680    3.2210    1.2650 n         1 MOL     -0.617156
     20 C7         -2.9070    4.5970    0.8710 c3        1 MOL     -0.044233
     21 C8         -4.1570    4.7730    0.0490 c         1 MOL      0.571501
     22 O5         -4.9740    5.7210    0.3710 o         1 MOL     -0.608257
     23 C9         -1.5510    5.2190    0.3680 c3        1 MOL      0.308672
     24 C10        -0.3110    4.8660    1.2460 c3        1 MOL      0.017644
     25 C11        -1.7780    6.6690    0.2610 c3        1 MOL     -0.457005
     26 C12         0.9840    5.3880    0.6270 c3        1 MOL     -0.108314
     27 H8         -2.0540    2.6290    0.7300 hn        1 MOL      0.267823
     28 H9         -3.1200    5.1590    1.7770 h1        1 MOL      0.074215
     29 H10        -1.3290    4.8800   -0.6520 hc        1 MOL     -0.006492
     30 H11        -0.2080    3.7800    1.2380 hc        1 MOL      0.030472
     31 H12        -0.3330    5.2610    2.2600 hc        1 MOL      0.030472
     32 H13        -2.5710    6.8930   -0.4500 hc        1 MOL      0.090797
     33 H14        -1.9350    7.0660    1.2560 hc        1 MOL      0.090797
     34 H15        -0.8830    7.0120   -0.2550 hc        1 MOL      0.090797
     35 H16         0.8890    5.4060   -0.4530 hc        1 MOL      0.006347
     36 H17         1.0700    6.4270    0.9550 hc        1 MOL      0.006347
     37 H18         1.8360    4.8160    0.9980 hc        1 MOL      0.006347
     38 N3         -4.3680    3.8070   -0.8210 n         1 MOL     -0.490755
     39 C13        -5.3800    3.7780   -1.8860 c3        1 MOL      0.239688
     40 C14        -6.6710    2.9950   -1.5990 c         1 MOL      0.438787
     41 O6         -7.6370    3.2800   -2.3250 o         1 MOL     -0.570990
     42 C15        -4.8210    3.3840   -3.2640 c3        1 MOL     -0.300951
     43 C16        -3.8800    2.1400   -3.1850 c         1 MOL      0.827831
     44 O7         -3.3250    1.8290   -4.2640 o         1 MOL     -0.710746
     45 O8         -3.8150    1.3700   -2.1950 o         1 MOL     -0.710746
     46 H19        -3.6970    3.0580   -0.8360 hn        1 MOL      0.232271
     47 H20        -5.8030    4.7510   -2.1140 h1        1 MOL      0.022859
     48 H21        -4.2820    4.2680   -3.6010 hc        1 MOL      0.069565
     49 H22        -5.6510    3.1510   -3.9260 hc        1 MOL      0.069565
     50 N4         -6.6400    2.1320   -0.5900 n         1 MOL     -0.124839
     51 C17        -7.8020    1.3680   -0.0970 c3        1 MOL     -0.112681
     52 C18        -8.0820    0.0970   -0.8250 c         1 MOL      0.550641
     53 O9         -8.8980    0.0460   -1.7440 o         1 MOL     -0.565417
     54 H23        -5.7240    1.8350   -0.2890 hn        1 MOL      0.171135
     55 H24        -8.6400    2.0470    0.0390 h1        1 MOL      0.042045
     56 H25        -7.4100    1.0750    0.8770 h1        1 MOL      0.042045
     57 N5         -7.2910   -0.9300   -0.5440 n         1 MOL     -0.261914
     58 C19        -7.3800   -2.2710   -1.0120 c3        1 MOL      0.060567
     59 C20        -7.1420   -3.4100   -0.0380 c         1 MOL      0.431800
     60 O10        -7.4200   -4.5960   -0.2650 o         1 MOL     -0.541191
     61 C21        -6.4790   -2.4220   -2.2070 c3        1 MOL     -0.145040
     62 C22        -4.9750   -2.1430   -1.9720 c         1 MOL      0.762544
     63 O11        -4.2600   -2.0030   -2.9790 o         1 MOL     -0.755876
     64 O12        -4.5210   -1.9660   -0.8320 o         1 MOL     -0.755876
     65 H26        -6.5760   -0.8520    0.1700 hn        1 MOL      0.106307
     66 H27        -8.4040   -2.3500   -1.3770 h1        1 MOL      0.030104
     67 H28        -6.8450   -1.7880   -3.0040 hc        1 MOL      0.040067
     68 H29        -6.6240   -3.4700   -2.4600 hc        1 MOL      0.040067
     69 N6         -6.6340   -3.0490    1.1420 n         1 MOL     -0.288643
     70 C23        -6.3270   -3.9170    2.2260 c3        1 MOL      0.024797
     71 C24        -4.9090   -4.5190    2.1410 c         1 MOL      0.404581
     72 O13        -4.6300   -5.6400    2.7000 o         1 MOL     -0.582918
     73 H30        -6.3370   -2.0800    1.2100 hn        1 MOL      0.199959
     74 H31        -6.9940   -4.7720    2.3700 h1        1 MOL      0.049728
     75 H32        -6.4160   -3.4110    3.1840 h1        1 MOL      0.049728
     76 N7         -3.9850   -3.8310    1.4380 n         1 MOL     -0.161210
     77 C25        -2.5960   -4.2140    1.3200 c3        1 MOL      0.072158
     78 C26        -1.6870   -2.9890    1.3780 c         1 MOL      0.626985
     79 O14        -2.1320   -1.8400    1.2570 o         1 MOL     -0.691294
     80 C27        -2.4040   -5.1600    0.1170 c3        1 MOL      0.090059
     81 C28        -2.6410   -4.6800   -1.3190 c3        1 MOL     -0.260613
     82 C29        -1.5000   -3.8780   -1.8500 c         1 MOL      0.510073
     83 N8         -0.5290   -4.4830   -2.5090 n         1 MOL     -0.635206
     84 O15        -1.2990   -2.6950   -1.6980 o         1 MOL     -0.479519
     85 H33        -4.1920   -2.9430    1.0060 hn        1 MOL      0.195893
     86 H34        -2.3620   -4.8360    2.1880 h1        1 MOL      0.014102
     87 H35        -2.9680   -6.0730    0.2820 hc        1 MOL     -0.026761
     88 H36        -1.3490   -5.4290    0.1780 hc        1 MOL     -0.026761
     89 H37        -3.5960   -4.1450   -1.2910 hc        1 MOL      0.103453
     90 H38        -2.8460   -5.5130   -1.9910 hc        1 MOL      0.103453
     91 H39        -0.6760   -5.4040   -2.9050 hn        1 MOL      0.303654
     92 H40         0.3320   -3.9900   -2.6860 hn        1 MOL      0.303654
     93 N9         -0.4060   -3.2170    1.6370 n         1 MOL     -0.510748
     94 C30         0.5880   -2.2130    1.8690 c3        1 MOL     -0.062824
     95 C31         1.8320   -2.6680    1.1290 c         1 MOL      0.511256
     96 O16         2.4600   -3.5770    1.6310 o         1 MOL     -0.566953
     97 C32         0.9190   -2.1630    3.3260 c3        1 MOL      0.060619
     98 C33         1.8630   -1.1010    3.7100 c3        1 MOL     -0.213508
     99 C34        -0.3080   -1.7910    4.1940 c3        1 MOL     -0.213508
    100 H41        -0.1410   -4.1950    1.6760 hn        1 MOL      0.324919
    101 H42         0.2570   -1.2170    1.5710 h1        1 MOL      0.229544
    102 H43         1.3600   -3.0820    3.7240 hc        1 MOL      0.041219
    103 H44         1.5520   -0.0600    3.6220 hc        1 MOL      0.050441
    104 H45         2.2040   -1.3330    4.7170 hc        1 MOL      0.050441
    105 H46         2.7790   -1.1750    3.1300 hc        1 MOL      0.050441
    106 H47        -0.7910   -0.8180    4.0710 hc        1 MOL      0.050441
    107 H48        -1.0900   -2.5460    4.1390 hc        1 MOL      0.050441
    108 H49        -0.1000   -1.8380    5.2610 hc        1 MOL      0.050441
    109 N10         2.2040   -2.1420   -0.0670 n         1 MOL     -0.150017
    110 C35         3.4170   -2.4580   -0.8150 c3        1 MOL     -0.022744
    111 C36         4.6340   -1.8850   -0.0330 c         1 MOL      0.397182
    112 O17         4.5290   -1.2820    1.0610 o         1 MOL     -0.287371
    113 C37         3.3030   -1.7590   -2.1780 c3        1 MOL     -0.518521
    114 C38         2.1960   -2.3100   -3.0210 c         1 MOL      0.890418
    115 N11         1.0540   -1.6540   -3.0060 n         1 MOL     -0.815697
    116 O18         2.3540   -3.2700   -3.7250 o         1 MOL     -0.629752
    117 H50         1.6790   -1.3410   -0.3720 hn        1 MOL      0.039045
    118 H51         3.5580   -3.5450   -0.8550 h1        1 MOL      0.098184
    119 H52         4.2130   -1.8220   -2.7650 hc        1 MOL      0.168633
    120 H53         3.1510   -0.7290   -1.8690 hc        1 MOL      0.168633
    121 H54         0.7790   -0.9850   -2.2910 hn        1 MOL      0.349986
    122 H55         0.3400   -1.6830   -3.7070 hn        1 MOL      0.349986
    123 N12         5.8480   -2.2340   -0.5290 n         1 MOL     -0.537874
    124 C39         7.0870   -1.6300   -0.0470 c3        1 MOL      0.189130
    125 C40         7.1850   -0.1580   -0.3660 c         1 MOL      0.695400
    126 O19         7.2770    0.6220    0.5560 o         1 MOL     -0.539302
    127 C41         8.2940   -2.2770   -0.6750 c3        1 MOL     -0.052495
    128 C42         9.6220   -1.7610   -0.1750 ca        1 MOL     -0.002704
    129 C43         9.8430   -1.7010    1.2100 ca        1 MOL     -0.141510
    130 C44        10.5670   -1.2100   -1.0630 ca        1 MOL     -0.141510
    131 C45        11.0660   -1.2390    1.7770 ca        1 MOL     -0.258517
    132 C46        11.6810   -0.5710   -0.5640 ca        1 MOL     -0.258517
    133 C47        11.9110   -0.5720    0.8770 ca        1 MOL      0.271365
    134 O20        12.7840    0.2200    1.4670 oh        1 MOL     -0.418919
    135 H56         5.8270   -2.7800   -1.3830 hn        1 MOL      0.305694
    136 H57         7.1140   -1.7900    1.0370 h1        1 MOL      0.059853
    137 H58         8.1750   -2.0810   -1.7430 hc        1 MOL      0.008701
    138 H59         8.3050   -3.3610   -0.5090 hc        1 MOL      0.008701
    139 H60         9.1480   -2.1550    1.9050 ha        1 MOL      0.128681
    140 H61        10.4040   -1.2580   -2.1380 ha        1 MOL      0.128681
    141 H62        11.2030   -1.1100    2.8390 ha        1 MOL      0.151220
    142 H63        12.3600   -0.0790   -1.2590 ha        1 MOL      0.151220
    143 H64        13.1590    0.7170    0.7320 ho        1 MOL      0.333128
    144 N13         6.8650    0.3070   -1.6050 n         1 MOL     -0.626230
    145 C48         6.4730    1.6960   -1.7840 c3        1 MOL      0.128858
    146 C49         5.5350    2.3400   -0.7310 c         1 MOL      0.389239
    147 O21         5.7540    3.5620   -0.4850 o         1 MOL     -0.538835
    148 C50         6.0130    1.9760   -3.2370 c3        1 MOL     -0.138121
    149 C51         4.7910    1.1450   -3.5930 c3        1 MOL      0.180322
    150 C52         4.4210    1.5010   -4.9990 c         1 MOL      0.638178
    151 O22         3.5000    2.3690   -5.2210 o         1 MOL     -0.715790
    152 O23         5.0980    1.0390   -5.9590 o         1 MOL     -0.715790
    153 H65         6.6570   -0.3420   -2.3540 hn        1 MOL      0.363488
    154 H66         7.3320    2.3680   -1.7070 h1        1 MOL      0.032971
    155 H67         6.7560    1.5700   -3.9150 hc        1 MOL      0.042424
    156 H68         5.7660    3.0280   -3.3630 hc        1 MOL      0.042424
    157 H69         3.9860    1.3290   -2.8810 hc        1 MOL     -0.149331
    158 H70         5.0630    0.0880   -3.6190 hc        1 MOL     -0.149331
    159 N14         4.5670    1.6330   -0.0600 n         1 MOL     -0.032897
    160 C53         3.6980    2.3000    0.9030 c3        1 MOL     -0.087598
    161 C54         4.2990    2.1390    2.2840 c         1 MOL      0.456616
    162 O24         4.1630    3.0170    3.1530 o         1 MOL     -0.568178
    163 C55         2.2870    1.6340    0.9110 c3        1 MOL      0.131754
    164 C56         1.3780    1.9450   -0.3570 c3        1 MOL     -0.159924
    165 C57         0.1390    1.0510   -0.3380 c         1 MOL      0.611718
    166 O25        -0.9720    1.6560   -0.2160 o         1 MOL     -0.652176
    167 O26         0.1630   -0.1730   -0.6520 o         1 MOL     -0.652176
    168 H71         4.5350    0.6240   -0.1580 hn        1 MOL      0.115032
    169 H72         3.6230    3.3770    0.7500 h1        1 MOL      0.100752
    170 H73         1.8440    1.9600    1.8510 hc        1 MOL      0.017751
    171 H74         2.3810    0.5470    0.9230 hc        1 MOL      0.017751
    172 H75         1.9940    1.6120   -1.1910 hc        1 MOL      0.074967
    173 H76         1.1590    2.9970   -0.5190 hc        1 MOL      0.074967
    174 N15         5.0350    1.0750    2.5030 n         1 MOL     -0.022267
    175 C58         5.9220    0.9160    3.6780 c3        1 MOL     -0.361056
    176 H77         5.3340    1.0060    4.5920 h1        1 MOL      0.119654
    177 H78         6.3950   -0.0660    3.6470 h1        1 MOL      0.119654
    178 H79         6.6890    1.6910    3.6620 h1        1 MOL      0.119654
    179 H80         5.0350    0.2970    1.8620 hn        1 MOL     -0.022008
    180 Ca1        -2.4910   -0.4010   -1.0580 Ca        1 MOL      1.694280
    181 O27        -1.4620    0.1180   -3.3550 oh        1 MOL     -0.831157
    182 H81        -1.8390    0.8130   -3.8920 ho        1 MOL      0.396913
    183 H82        -1.2980   -0.6030   -3.9700 ho        1 MOL      0.396913
@<TRIPOS>BOND
     1    1    2 1   
     2    1    4 1   
     3    1    5 1   
     4    1    6 1   
     5    2    3 2   
     6    2    7 1   
     7    7    8 1   
     8    7   15 1   
     9    8    9 1   
    10    8   11 1   
    11    8   16 1   
    12    9   10 2   
    13    9   19 1   
    14   11   12 1   
    15   11   17 1   
    16   11   18 1   
    17   12   13 1   
    18   12   14 1   
    19   19   20 1   
    20   19   27 1   
    21   20   21 1   
    22   20   23 1   
    23   20   28 1   
    24   21   22 2   
    25   21   38 1   
    26   23   24 1   
    27   23   25 1   
    28   23   29 1   
    29   24   26 1   
    30   24   30 1   
    31   24   31 1   
    32   25   32 1   
    33   25   33 1   
    34   25   34 1   
    35   26   35 1   
    36   26   36 1   
    37   26   37 1   
    38   38   39 1   
    39   38   46 1   
    40   39   40 1   
    41   39   42 1   
    42   39   47 1   
    43   40   41 2   
    44   40   50 1   
    45   42   43 1   
    46   42   48 1   
    47   42   49 1   
    48   43   44 1   
    49   43   45 1   
    50   50   51 1   
    51   50   54 1   
    52   51   52 1   
    53   51   55 1   
    54   51   56 1   
    55   52   53 2   
    56   52   57 1   
    57   57   58 1   
    58   57   65 1   
    59   58   59 1   
    60   58   61 1   
    61   58   66 1   
    62   59   60 2   
    63   59   69 1   
    64   61   62 1   
    65   61   67 1   
    66   61   68 1   
    67   62   63 1   
    68   62   64 1   
    69   69   70 1   
    70   69   73 1   
    71   70   71 1   
    72   70   74 1   
    73   70   75 1   
    74   71   72 2   
    75   71   76 1   
    76   76   77 1   
    77   76   85 1   
    78   77   78 1   
    79   77   80 1   
    80   77   86 1   
    81   78   79 2   
    82   78   93 1   
    83   80   81 1   
    84   80   87 1   
    85   80   88 1   
    86   81   82 1   
    87   81   89 1   
    88   81   90 1   
    89   82   83 1   
    90   82   84 2   
    91   83   91 1   
    92   83   92 1   
    93   93   94 1   
    94   93  100 1   
    95   94   95 1   
    96   94   97 1   
    97   94  101 1   
    98   95   96 2   
    99   95  109 1   
   100   97   98 1   
   101   97   99 1   
   102   97  102 1   
   103   98  103 1   
   104   98  104 1   
   105   98  105 1   
   106   99  106 1   
   107   99  107 1   
   108   99  108 1   
   109  109  110 1   
   110  109  117 1   
   111  110  111 1   
   112  110  113 1   
   113  110  118 1   
   114  111  112 2   
   115  111  123 1   
   116  113  114 1   
   117  113  119 1   
   118  113  120 1   
   119  114  115 1   
   120  114  116 2   
   121  115  121 1   
   122  115  122 1   
   123  123  124 1   
   124  123  135 1   
   125  124  125 1   
   126  124  127 1   
   127  124  136 1   
   128  125  126 2   
   129  125  144 1   
   130  127  128 1   
   131  127  137 1   
   132  127  138 1   
   133  128  129 ar  
   134  128  130 ar  
   135  129  131 ar  
   136  129  139 1   
   137  130  132 ar  
   138  130  140 1   
   139  131  133 ar  
   140  131  141 1   
   141  132  133 ar  
   142  132  142 1   
   143  133  134 1   
   144  134  143 1   
   145  144  145 1   
   146  144  153 1   
   147  145  146 1   
   148  145  148 1   
   149  145  154 1   
   150  146  147 2   
   151  146  159 1   
   152  148  149 1   
   153  148  155 1   
   154  148  156 1   
   155  149  150 1   
   156  149  157 1   
   157  149  158 1   
   158  150  151 1   
   159  150  152 1   
   160  159  160 1   
   161  159  168 1   
   162  160  161 1   
   163  160  163 1   
   164  160  169 1   
   165  161  162 2   
   166  161  174 1   
   167  163  164 1   
   168  163  170 1   
   169  163  171 1   
   170  164  165 1   
   171  164  172 1   
   172  164  173 1   
   173  165  166 1   
   174  165  167 1   
   175  174  175 1   
   176  174  179 1   
   177  175  176 1   
   178  175  177 1   
   179  175  178 1   
   180  181  182 1   
   181  181  183 1   
@<TRIPOS>SUBSTRUCTURE
     1 MOL         1 TEMP              0 ****  ****    0 ROOT
