@<TRIPOS>MOLECULE
MOL
  175   173     1     0     0
SMALL
resp


@<TRIPOS>ATOM
      1 C1          0.0170    3.8410    5.3920 c3        1 MOL     -0.441327
      2 C2         -0.6970    4.0920    4.0240 c         1 MOL      0.674951
      3 O1         -0.0290    4.5290    3.0290 o         1 MOL     -0.540908
      4 H1         -0.7010    3.9590    6.2030 hc        1 MOL      0.109550
      5 H2          0.4220    2.8290    5.4110 hc        1 MOL      0.109550
      6 H3          0.8260    4.5600    5.5170 hc        1 MOL      0.109550
      7 N1         -1.9980    3.9150    3.9190 n         1 MOL     -0.595741
      8 C3         -2.7140    3.7020    2.6560 c3        1 MOL      0.272003
      9 C4         -3.1550    4.9770    1.8200 c         1 MOL      0.509725
     10 O2         -3.1860    6.1300    2.3720 o         1 MOL     -0.564001
     11 C5         -4.0020    2.8240    2.8880 c3        1 MOL     -0.298799
     12 C6         -4.5670    2.0800    1.6500 c         1 MOL      0.745573
     13 O3         -5.6770    1.4850    1.7140 o         1 MOL     -0.687193
     14 O4         -3.8670    1.9610    0.6250 o         1 MOL     -0.687193
     15 H4         -2.4600    3.6970    4.7950 hn        1 MOL      0.305074
     16 H5         -2.1030    3.0410    2.0350 h1        1 MOL      0.003048
     17 H6         -4.8350    3.4200    3.2620 hc        1 MOL      0.047828
     18 H7         -3.8540    2.0390    3.6280 hc        1 MOL      0.047828
     19 N2         -3.3720    4.7380    0.5310 n         1 MOL     -0.576793
     20 C7         -3.8470    5.6910   -0.4550 c3        1 MOL      0.463533
     21 C8         -4.5850    4.9680   -1.6210 c         1 MOL      0.356997
     22 O5         -4.8290    5.6870   -2.6290 o         1 MOL     -0.543362
     23 C9         -2.5950    6.5090   -1.0080 c3        1 MOL     -0.343299
     24 H8         -3.4030    3.7750    0.2370 hn        1 MOL      0.381341
     25 H9         -4.5770    6.3560    0.0050 h1        1 MOL     -0.036508
     26 H10        -2.0940    7.0440   -0.1980 hc        1 MOL      0.089136
     27 H11        -1.9320    5.8800   -1.6020 hc        1 MOL      0.089136
     28 H12        -3.0260    7.3120   -1.6060 hc        1 MOL      0.089136
     29 N3         -4.8690    3.6170   -1.5800 n         1 MOL     -0.347965
     30 C10        -5.3900    2.9800   -2.8040 c3        1 MOL      0.087646
     31 C11        -6.4720    1.9840   -2.5770 c         1 MOL      0.444425
     32 O6         -7.0430    1.5080   -3.5390 o         1 MOL     -0.532310
     33 C12        -4.2020    2.2530   -3.4590 c3        1 MOL     -0.477848
     34 C13        -3.4110    1.3150   -2.5070 c         1 MOL      0.851132
     35 O7         -2.2240    1.4510   -2.4200 o         1 MOL     -0.718837
     36 O8         -3.9770    0.4430   -1.8130 o         1 MOL     -0.718837
     37 H13        -4.7260    3.1750   -0.6860 hn        1 MOL      0.117905
     38 H14        -5.7400    3.7410   -3.5070 h1        1 MOL      0.113948
     39 H15        -3.5330    3.0870   -3.7030 hc        1 MOL      0.141184
     40 H16        -4.5750    1.6300   -4.2770 hc        1 MOL      0.141184
     41 N4         -6.8100    1.6220   -1.3310 n         1 MOL     -0.330885
     42 C14        -7.8310    0.5930   -1.0540 c3        1 MOL     -0.317773
     43 C15        -7.4790   -0.8650   -1.4940 c         1 MOL      0.546463
     44 O9         -8.3600   -1.7060   -1.5060 o         1 MOL     -0.631943
     45 H17        -6.0760    1.7940   -0.6490 hn        1 MOL      0.262179
     46 H18        -8.7500    0.8180   -1.6000 h1        1 MOL      0.157369
     47 H19        -8.0460    0.5960    0.0070 h1        1 MOL      0.157369
     48 N5         -6.2450   -1.2690   -1.6850 n         1 MOL     -0.226474
     49 C16        -5.8360   -2.6090   -2.0950 c3        1 MOL      0.002018
     50 C17        -5.6260   -3.6060   -0.9470 c         1 MOL      0.366258
     51 O10        -5.2490   -4.7360   -1.2240 o         1 MOL     -0.488582
     52 C18        -4.6750   -2.5770   -3.1410 c3        1 MOL     -0.109382
     53 C19        -3.3140   -2.5710   -2.4440 c         1 MOL      0.461412
     54 N6         -2.2580   -2.7770   -3.2170 n         1 MOL     -0.558050
     55 O11        -3.1820   -2.4250   -1.2490 o         1 MOL     -0.496444
     56 H20        -5.5190   -0.5820   -1.6000 hn        1 MOL      0.277228
     57 H21        -6.7130   -2.9200   -2.6520 h1        1 MOL      0.110325
     58 H22        -4.7800   -1.7110   -3.7940 hc        1 MOL      0.043765
     59 H23        -4.7470   -3.4500   -3.7740 hc        1 MOL      0.043765
     60 H24        -2.5290   -3.0200   -4.1590 hn        1 MOL      0.312074
     61 H25        -1.3480   -2.4810   -2.8840 hn        1 MOL      0.312074
     62 N7         -5.9810   -3.2460    0.3160 n         1 MOL     -0.182310
     63 C20        -6.0110   -4.2410    1.4090 c3        1 MOL     -0.317806
     64 C21        -4.6100   -4.5390    1.8580 c         1 MOL      0.503963
     65 O12        -4.5050   -5.4370    2.7520 o         1 MOL     -0.590386
     66 H26        -6.2680   -2.2910    0.4750 hn        1 MOL      0.221829
     67 H27        -6.4200   -5.1090    0.9030 h1        1 MOL      0.160118
     68 H28        -6.6680   -3.8890    2.2030 h1        1 MOL      0.160118
     69 N8         -3.6010   -4.0030    1.2410 n         1 MOL     -0.125670
     70 C22        -2.2000   -4.5240    1.5130 c3        1 MOL     -0.286052
     71 C23        -1.1310   -3.3730    1.5890 c         1 MOL      0.525504
     72 O13        -1.3260   -2.3010    1.0560 o         1 MOL     -0.537476
     73 C24        -1.8080   -5.5530    0.3900 c3        1 MOL      0.742243
     74 C25        -2.5340   -6.8410    0.4720 c3        1 MOL     -0.416129
     75 O14        -2.0740   -5.0210   -0.8580 oh        1 MOL     -0.689092
     76 H29        -3.8350   -3.3330    0.5220 hn        1 MOL      0.065793
     77 H30        -2.2000   -5.0900    2.4480 h1        1 MOL      0.105179
     78 H31        -0.7370   -5.7070    0.4860 h1        1 MOL     -0.077096
     79 H32        -2.5720   -4.2090   -0.7210 ho        1 MOL      0.429305
     80 H33        -2.3630   -7.1420    1.5050 hc        1 MOL      0.079773
     81 H34        -3.5840   -6.7870    0.1920 hc        1 MOL      0.079773
     82 H35        -1.9350   -7.5190   -0.1350 hc        1 MOL      0.079773
     83 N9          0.1130   -3.6650    2.0390 n         1 MOL     -0.492583
     84 C26         1.3020   -2.8140    2.0930 c3        1 MOL     -0.018446
     85 C27         2.0020   -2.8810    0.7760 c         1 MOL      0.645222
     86 O15         2.4380   -3.9920    0.4270 o         1 MOL     -0.612107
     87 C28         2.3330   -3.1220    3.2420 c3        1 MOL      0.094013
     88 C29         1.5680   -3.3250    4.5410 c3        1 MOL     -0.003778
     89 C30         3.4570   -2.0110    3.2740 c3        1 MOL     -0.280892
     90 C31         2.4980   -3.8080    5.6690 c3        1 MOL     -0.028470
     91 H36         0.2460   -4.5940    2.4340 hn        1 MOL      0.270447
     92 H37         1.0340   -1.7610    2.2100 h1        1 MOL      0.088053
     93 H38         2.9320   -3.9970    2.9710 hc        1 MOL     -0.000577
     94 H39         0.7880   -4.0840    4.4160 hc        1 MOL      0.010465
     95 H40         1.0630   -2.4300    4.9200 hc        1 MOL      0.010465
     96 H41         2.8890   -1.1260    2.9950 hc        1 MOL      0.081566
     97 H42         3.8270   -1.8900    4.2900 hc        1 MOL      0.081566
     98 H43         4.2830   -2.1750    2.5950 hc        1 MOL      0.081566
     99 H44         1.8320   -4.1550    6.4580 hc        1 MOL     -0.000616
    100 H45         3.0630   -4.7250    5.5230 hc        1 MOL     -0.000616
    101 H46         3.1420   -3.0520    6.1280 hc        1 MOL     -0.000616
    102 N10         2.1690   -1.7400    0.1010 n         1 MOL     -0.175756
    103 C32         2.9090   -1.5120   -1.1450 c3        1 MOL      0.033609
    104 C33         4.3260   -1.0700   -0.9020 c         1 MOL      0.268999
    105 O16         4.7810   -0.6010    0.1410 o         1 MOL     -0.311816
    106 C34         2.1060   -0.5770   -2.1030 c3        1 MOL     -0.321489
    107 C35         0.7340   -1.1660   -2.5740 c         1 MOL      0.742780
    108 O17        -0.3090   -0.9820   -1.8920 o         1 MOL     -0.682446
    109 O18         0.6070   -1.7850   -3.6570 o         1 MOL     -0.682446
    110 H47         1.6900   -0.9500    0.5160 hn        1 MOL      0.011537
    111 H48         3.0070   -2.4670   -1.6840 h1        1 MOL      0.071399
    112 H49         2.7250   -0.3880   -2.9720 hc        1 MOL      0.097194
    113 H50         1.9050    0.3070   -1.5130 hc        1 MOL      0.097194
    114 N11         5.1970   -1.1720   -1.8580 n         1 MOL     -0.395336
    115 C36         6.6250   -0.8870   -1.7900 c3        1 MOL      0.276486
    116 C37         7.0250    0.5960   -1.4270 c         1 MOL      0.256056
    117 O19         7.9930    0.8080   -0.6960 o         1 MOL     -0.486830
    118 C38         7.4530   -1.4310   -2.9540 c3        1 MOL     -0.307432
    119 C39         8.9570   -1.5350   -2.5910 ca        1 MOL      0.226640
    120 C40         9.8250   -0.5100   -3.0380 ca        1 MOL     -0.267744
    121 C41         9.5470   -2.6300   -1.9210 ca        1 MOL     -0.267744
    122 C42        11.2180   -0.5550   -2.7170 ca        1 MOL     -0.013328
    123 C43        10.8910   -2.6230   -1.5570 ca        1 MOL     -0.013328
    124 C44        11.7770   -1.6290   -1.9820 ca        1 MOL     -0.215965
    125 H51         4.9040   -1.6170   -2.7120 hn        1 MOL      0.288188
    126 H52         6.9640   -1.4460   -0.9300 h1        1 MOL      0.060105
    127 H53         7.3450   -0.7630   -3.8010 hc        1 MOL      0.089882
    128 H54         6.9090   -2.2990   -3.3280 hc        1 MOL      0.089882
    129 H55         9.4530    0.4070   -3.4680 ha        1 MOL      0.141823
    130 H56         8.9160   -3.4320   -1.5600 ha        1 MOL      0.141823
    131 H57        11.7730    0.3510   -2.9590 ha        1 MOL      0.089062
    132 H58        11.3140   -3.4420   -1.0000 ha        1 MOL      0.089062
    133 H59        12.7960   -1.6940   -1.6380 ha        1 MOL      0.128414
    134 N12         6.2630    1.6610   -1.7320 n         1 MOL      0.028371
    135 C45         6.4600    3.0220   -1.1380 c3        1 MOL      0.055308
    136 C46         5.7840    3.1170    0.2480 c         1 MOL      0.203241
    137 O20         6.1320    4.0180    0.9470 o         1 MOL     -0.480214
    138 C47         5.8780    4.1220   -2.0550 c3        1 MOL     -0.160288
    139 C48         4.9760    3.3450   -2.8920 c3        1 MOL      0.091994
    140 C49         5.3970    1.8270   -2.8740 c3        1 MOL     -0.117453
    141 H60         7.5120    3.2920   -1.0150 h1        1 MOL      0.073913
    142 H61         5.2930    4.8570   -1.5120 hc        1 MOL      0.069095
    143 H62         6.7490    4.5450   -2.5690 hc        1 MOL      0.069095
    144 H63         3.9790    3.4640   -2.4860 hc        1 MOL      0.007292
    145 H64         4.9540    3.7900   -3.8910 hc        1 MOL      0.007292
    146 H65         4.5110    1.1950   -2.8790 h1        1 MOL      0.024912
    147 H66         5.9810    1.5960   -3.7610 h1        1 MOL      0.024912
    148 N13         4.7650    2.2900    0.5820 n         1 MOL     -0.010701
    149 C50         4.1360    2.2800    1.8590 c3        1 MOL     -0.151724
    150 C51         4.9430    1.4460    2.9080 c         1 MOL      0.467127
    151 O21         4.9270    1.6920    4.0670 o         1 MOL     -0.567965
    152 C52         2.7970    1.5900    1.6560 c3        1 MOL      0.000802
    153 C53         1.8600    2.3230    0.7820 c3        1 MOL      0.027425
    154 C54         0.4900    1.6820    0.6050 c         1 MOL      0.706324
    155 O22        -0.3510    2.4070    0.0580 o         1 MOL     -0.707629
    156 O23         0.2590    0.5000    0.8630 o         1 MOL     -0.707629
    157 H67         4.4810    1.6330   -0.1320 hn        1 MOL      0.180639
    158 H68         4.0250    3.2890    2.2470 h1        1 MOL      0.122297
    159 H69         2.3180    1.5090    2.6320 hc        1 MOL      0.001683
    160 H70         2.9330    0.5570    1.3210 hc        1 MOL      0.001683
    161 H71         2.2610    2.4710   -0.2250 hc        1 MOL      0.008381
    162 H72         1.7950    3.3290    1.2070 hc        1 MOL      0.008381
    163 N14         5.7780    0.5480    2.4480 n         1 MOL     -0.044844
    164 C55         6.7270   -0.1340    3.4160 c3        1 MOL     -0.188282
    165 H73         6.2980   -0.1170    4.4180 h1        1 MOL      0.074509
    166 H74         6.8830   -1.1670    3.1060 h1        1 MOL      0.074509
    167 H75         7.6820    0.3930    3.4220 h1        1 MOL      0.074509
    168 H76         5.6470    0.2660    1.4860 hn        1 MOL      0.023677
    169 Ca1        -2.0150   -0.0510   -0.2050 Ca        1 MOL      1.702238
    170 O24        -1.9640    0.3050    2.6670 oh        1 MOL     -0.715052
    171 H77        -1.0670    0.6360    2.7210 ho        1 MOL      0.359877
    172 H78        -2.2460    0.1990    3.5730 ho        1 MOL      0.359877
    173 O25        -4.2330   -0.8100    1.0250 oh        1 MOL     -0.715052
    174 H79        -4.8840   -0.0990    1.0590 ho        1 MOL      0.359877
    175 H80        -4.2310   -1.1770    1.9100 ho        1 MOL      0.359877
@<TRIPOS>BOND
     1    1    2 1   
     2    1    4 1   
     3    1    5 1   
     4    1    6 1   
     5    2    3 2   
     6    2    7 1   
     7    7    8 1   
     8    7   15 1   
     9    8    9 1   
    10    8   11 1   
    11    8   16 1   
    12    9   10 2   
    13    9   19 1   
    14   11   12 1   
    15   11   17 1   
    16   11   18 1   
    17   12   13 1   
    18   12   14 1   
    19   19   20 1   
    20   19   24 1   
    21   20   21 1   
    22   20   23 1   
    23   20   25 1   
    24   21   22 2   
    25   21   29 1   
    26   23   26 1   
    27   23   27 1   
    28   23   28 1   
    29   29   30 1   
    30   29   37 1   
    31   30   31 1   
    32   30   33 1   
    33   30   38 1   
    34   31   32 2   
    35   31   41 1   
    36   33   34 1   
    37   33   39 1   
    38   33   40 1   
    39   34   35 1   
    40   34   36 1   
    41   41   42 1   
    42   41   45 1   
    43   42   43 1   
    44   42   46 1   
    45   42   47 1   
    46   43   44 2   
    47   43   48 1   
    48   48   49 1   
    49   48   56 1   
    50   49   50 1   
    51   49   52 1   
    52   49   57 1   
    53   50   51 2   
    54   50   62 1   
    55   52   53 1   
    56   52   58 1   
    57   52   59 1   
    58   53   54 1   
    59   53   55 2   
    60   54   60 1   
    61   54   61 1   
    62   62   63 1   
    63   62   66 1   
    64   63   64 1   
    65   63   67 1   
    66   63   68 1   
    67   64   65 2   
    68   64   69 1   
    69   69   70 1   
    70   69   76 1   
    71   70   71 1   
    72   70   73 1   
    73   70   77 1   
    74   71   72 2   
    75   71   83 1   
    76   73   74 1   
    77   73   75 1   
    78   73   78 1   
    79   74   80 1   
    80   74   81 1   
    81   74   82 1   
    82   75   79 1   
    83   83   84 1   
    84   83   91 1   
    85   84   85 1   
    86   84   87 1   
    87   84   92 1   
    88   85   86 2   
    89   85  102 1   
    90   87   88 1   
    91   87   89 1   
    92   87   93 1   
    93   88   90 1   
    94   88   94 1   
    95   88   95 1   
    96   89   96 1   
    97   89   97 1   
    98   89   98 1   
    99   90   99 1   
   100   90  100 1   
   101   90  101 1   
   102  102  103 1   
   103  102  110 1   
   104  103  104 1   
   105  103  106 1   
   106  103  111 1   
   107  104  105 2   
   108  104  114 1   
   109  106  107 1   
   110  106  112 1   
   111  106  113 1   
   112  107  108 1   
   113  107  109 1   
   114  114  115 1   
   115  114  125 1   
   116  115  116 1   
   117  115  118 1   
   118  115  126 1   
   119  116  117 2   
   120  116  134 1   
   121  118  119 1   
   122  118  127 1   
   123  118  128 1   
   124  119  120 ar  
   125  119  121 ar  
   126  120  122 ar  
   127  120  129 1   
   128  121  123 ar  
   129  121  130 1   
   130  122  124 ar  
   131  122  131 1   
   132  123  124 ar  
   133  123  132 1   
   134  124  133 1   
   135  134  135 1   
   136  134  140 1   
   137  135  136 1   
   138  135  138 1   
   139  135  141 1   
   140  136  137 2   
   141  136  148 1   
   142  138  139 1   
   143  138  142 1   
   144  138  143 1   
   145  139  140 1   
   146  139  144 1   
   147  139  145 1   
   148  140  146 1   
   149  140  147 1   
   150  148  149 1   
   151  148  157 1   
   152  149  150 1   
   153  149  152 1   
   154  149  158 1   
   155  150  151 2   
   156  150  163 1   
   157  152  153 1   
   158  152  159 1   
   159  152  160 1   
   160  153  154 1   
   161  153  161 1   
   162  153  162 1   
   163  154  155 1   
   164  154  156 1   
   165  163  164 1   
   166  163  168 1   
   167  164  165 1   
   168  164  166 1   
   169  164  167 1   
   170  170  171 1   
   171  170  172 1   
   172  173  174 1   
   173  173  175 1   
@<TRIPOS>SUBSTRUCTURE
     1 MOL         1 TEMP              0 ****  ****    0 ROOT
