@<TRIPOS>MOLECULE
MOL
  179   176     1     0     0
SMALL
resp


@<TRIPOS>ATOM
      1 C1          1.4830    4.3530    3.9670 c3        1 MOL     -0.243262
      2 C2          0.6730    3.6940    2.8270 c         1 MOL      0.446350
      3 O1          1.2320    3.4400    1.7060 o         1 MOL     -0.484801
      4 H1          2.1520    5.1040    3.5480 hc        1 MOL      0.070649
      5 H2          0.7990    4.8260    4.6710 hc        1 MOL      0.070649
      6 H3          2.0680    3.5930    4.4830 hc        1 MOL      0.070649
      7 N1         -0.5770    3.3170    3.0640 n         1 MOL     -0.483232
      8 C3         -1.4430    2.7450    2.0280 c3        1 MOL      0.052205
      9 C4         -2.2870    3.7360    1.3440 c         1 MOL      0.487373
     10 O2         -3.4910    3.8760    1.6330 o         1 MOL     -0.438858
     11 C5         -2.2780    1.6550    2.7860 c3        1 MOL      0.130718
     12 C6         -3.0690    0.7720    1.8260 c         1 MOL      0.542415
     13 O3         -3.9110    0.0390    2.3910 o         1 MOL     -0.639365
     14 O4         -2.8420    0.8190    0.5480 o         1 MOL     -0.639365
     15 H4         -0.9000    3.4010    4.0180 hn        1 MOL      0.330949
     16 H5         -0.8780    2.1740    1.3000 h1        1 MOL      0.028399
     17 H6         -2.9010    2.1800    3.5140 hc        1 MOL     -0.029211
     18 H7         -1.5870    0.9800    3.2760 hc        1 MOL     -0.029211
     19 N2         -1.5590    4.6570    0.6550 n         1 MOL     -0.281067
     20 C7         -2.0980    5.7850   -0.1450 c3        1 MOL     -0.036711
     21 C8         -3.3860    5.4280   -0.8780 c         1 MOL      0.395521
     22 O5         -4.2510    6.3120   -1.0290 o         1 MOL     -0.529293
     23 C9         -0.9940    6.3570   -1.0490 c3        1 MOL     -0.254465
     24 C10         0.2850    6.6670   -0.3320 c3        1 MOL      0.572480
     25 C11         1.3230    7.4620   -1.2130 c3        1 MOL     -0.045459
     26 C12         2.5830    7.6050   -0.3740 c3        1 MOL     -0.153702
     27 N3          2.3260    8.4570    0.7850 n4        1 MOL     -0.256531
     28 H8         -0.5580    4.7570    0.7960 hn        1 MOL      0.130381
     29 H9         -2.4010    6.5550    0.5570 h1        1 MOL      0.062185
     30 H10        -1.4300    7.2350   -1.5390 hc        1 MOL      0.075983
     31 H11        -0.8250    5.5860   -1.8000 hc        1 MOL      0.075983
     32 H12         0.8390    5.8130    0.0580 hc        1 MOL     -0.138258
     33 H13         0.0320    7.4430    0.3810 hc        1 MOL     -0.138258
     34 H14         0.9140    8.4280   -1.5110 hc        1 MOL      0.019754
     35 H15         1.4650    6.9120   -2.1450 hc        1 MOL      0.019754
     36 H16         3.3650    8.0740   -0.9660 hx        1 MOL      0.154244
     37 H17         2.8480    6.5980   -0.0320 hx        1 MOL      0.154244
     38 H18         3.1430    8.9280    1.1290 hn        1 MOL      0.302572
     39 H19         1.6180    9.1360    0.5570 hn        1 MOL      0.302572
     40 H20         1.7780    7.9050    1.4390 hn        1 MOL      0.302572
     41 N4         -3.5330    4.1930   -1.3600 n         1 MOL     -0.155570
     42 C13        -4.6540    3.8270   -2.3230 c3        1 MOL      0.027090
     43 C14        -5.6970    3.1210   -1.5040 c         1 MOL      0.502831
     44 O6         -6.8820    3.2320   -1.8430 o         1 MOL     -0.564629
     45 C15        -4.0970    2.8910   -3.4250 c3        1 MOL     -0.280656
     46 C16        -3.2010    1.8060   -2.9180 c         1 MOL      0.731359
     47 O7         -3.5090    0.5900   -2.8150 o         1 MOL     -0.749408
     48 O8         -2.0560    2.1170   -2.4950 o         1 MOL     -0.749408
     49 H21        -2.6210    3.7580   -1.4800 hn        1 MOL      0.232759
     50 H22        -5.1550    4.6400   -2.8480 h1        1 MOL      0.092048
     51 H23        -3.4430    3.4230   -4.1220 hc        1 MOL      0.085152
     52 H24        -4.9490    2.4090   -3.9020 hc        1 MOL      0.085152
     53 N5         -5.3330    2.4530   -0.3890 n         1 MOL      0.048365
     54 C17        -6.2600    1.8580    0.5600 c3        1 MOL     -0.309555
     55 C18        -6.8650    0.5630    0.2500 c         1 MOL      0.547186
     56 O9         -7.8870    0.2810    0.8790 o         1 MOL     -0.555318
     57 H25        -4.3570    2.4380   -0.1520 hn        1 MOL     -0.157084
     58 H26        -7.0770    2.5250    0.8250 h1        1 MOL      0.150303
     59 H27        -5.7140    1.7220    1.4930 h1        1 MOL      0.150303
     60 N6         -6.1490   -0.2240   -0.5620 n         1 MOL     -0.301870
     61 C19        -6.5490   -1.5890   -0.8120 c3        1 MOL      0.127513
     62 C20        -6.4270   -2.5420    0.4170 c         1 MOL      0.300429
     63 O10        -7.0570   -3.5790    0.4180 o         1 MOL     -0.463552
     64 C21        -5.8240   -2.1520   -2.0040 c3        1 MOL     -0.311300
     65 C22        -4.3590   -2.3270   -1.9580 c         1 MOL      0.736535
     66 N7         -3.7540   -2.9310   -2.9440 n         1 MOL     -0.668603
     67 O11        -3.7750   -1.8970   -0.9770 o         1 MOL     -0.693653
     68 H28        -5.2290    0.0210   -0.9140 hn        1 MOL      0.171012
     69 H29        -7.6280   -1.6180   -0.9860 h1        1 MOL      0.073808
     70 H30        -6.1070   -1.4740   -2.8030 hc        1 MOL      0.091723
     71 H31        -6.2890   -3.1170   -2.1590 hc        1 MOL      0.091723
     72 H32        -4.2830   -3.3210   -3.7170 hn        1 MOL      0.312974
     73 H33        -2.7720   -3.1410   -2.8260 hn        1 MOL      0.312974
     74 N8         -5.7010   -2.0820    1.5120 n         1 MOL     -0.094118
     75 C23        -5.5640   -2.7630    2.8000 c3        1 MOL     -0.289427
     76 C24        -4.0960   -3.0910    3.1860 c         1 MOL      0.512192
     77 O12        -3.7530   -3.3710    4.3510 o         1 MOL     -0.564740
     78 H34        -5.2630   -1.1790    1.5370 hn        1 MOL      0.240155
     79 H35        -6.0840   -3.7250    2.8160 h1        1 MOL      0.129864
     80 H36        -5.9160   -2.0580    3.5590 h1        1 MOL      0.129864
     81 N9         -3.1540   -3.0530    2.1790 n         1 MOL     -0.019952
     82 C25        -1.7640   -3.4950    2.2910 c3        1 MOL     -0.307460
     83 C26        -0.7450   -2.6560    1.5900 c         1 MOL      0.640232
     84 O13        -1.0040   -1.9810    0.6120 o         1 MOL     -0.669104
     85 C27        -1.6750   -4.9410    1.9090 c3        1 MOL     -0.063472
     86 C28        -2.3480   -5.3110    0.6190 ca        1 MOL      0.198551
     87 C29        -3.7370   -5.5950    0.5590 ca        1 MOL     -0.349829
     88 C30        -1.5730   -5.5110   -0.5440 ca        1 MOL     -0.349829
     89 C31        -4.3630   -5.9790   -0.6500 ca        1 MOL     -0.018614
     90 C32        -2.1970   -5.8150   -1.7730 ca        1 MOL     -0.018614
     91 C33        -3.5840   -6.1390   -1.8120 ca        1 MOL      0.097096
     92 O14        -4.2010   -6.6840   -2.8840 oh        1 MOL     -0.380809
     93 H37        -3.4140   -2.7630    1.2490 hn        1 MOL      0.301750
     94 H38        -1.5450   -3.5190    3.3620 h1        1 MOL      0.102162
     95 H39        -2.1780   -5.5810    2.6360 hc        1 MOL      0.056478
     96 H40        -0.6310   -5.2610    1.8850 hc        1 MOL      0.056478
     97 H41        -4.4040   -5.4830    1.4020 ha        1 MOL      0.161908
     98 H42        -0.5000   -5.4250   -0.4630 ha        1 MOL      0.161908
     99 H43        -5.4330   -6.1690   -0.6290 ha        1 MOL      0.085518
    100 H44        -1.5880   -6.0980   -2.6230 ha        1 MOL      0.085518
    101 H45        -3.5690   -6.5130   -3.5880 ho        1 MOL      0.297617
    102 N10         0.5450   -2.6680    2.1460 n         1 MOL     -0.297789
    103 C34         1.7430   -2.0890    1.6730 c3        1 MOL     -0.448216
    104 C35         2.9000   -3.0750    1.3760 c         1 MOL      0.784453
    105 O15         3.0910   -3.9610    2.1370 o         1 MOL     -0.565080
    106 C36         2.2080   -0.9830    2.5810 c3        1 MOL      0.100413
    107 C37         2.7860   -1.4920    3.9530 c3        1 MOL     -0.316779
    108 C38         1.1070    0.1160    2.7900 c3        1 MOL     -0.655197
    109 C39         3.4250   -0.4080    4.8600 c3        1 MOL     -0.065614
    110 H46         0.6190   -3.3260    2.9010 hn        1 MOL      0.290835
    111 H47         1.5200   -1.6760    0.6850 h1        1 MOL      0.288879
    112 H48         3.0260   -0.4300    2.1310 hc        1 MOL      0.023469
    113 H49         3.5850   -2.2000    3.7580 hc        1 MOL      0.121780
    114 H50         1.9450   -1.9470    4.4760 hc        1 MOL      0.121780
    115 H51         0.4720   -0.1580    3.6300 hc        1 MOL      0.218449
    116 H52         1.5200    1.1230    2.7150 hc        1 MOL      0.218449
    117 H53         0.4370    0.2220    1.9410 hc        1 MOL      0.218449
    118 H54         3.7840   -0.8120    5.8070 hc        1 MOL      0.033979
    119 H55         4.2690    0.0210    4.3200 hc        1 MOL      0.033979
    120 H56         2.6780    0.3640    5.0430 hc        1 MOL      0.033979
    121 N11         3.4380   -2.9360    0.1780 n         1 MOL     -0.541393
    122 C40         4.6430   -3.5650   -0.2440 c3        1 MOL      0.177284
    123 C41         5.9350   -2.7950    0.1190 c         1 MOL      0.327406
    124 O16         5.8990   -1.7320    0.7920 o         1 MOL     -0.342681
    125 C42         4.6450   -3.5380   -1.7410 c3        1 MOL     -0.146728
    126 O17         4.5610   -2.2120   -2.2410 oh        1 MOL     -0.430151
    127 H57         3.2900   -2.0210   -0.2270 hn        1 MOL      0.230066
    128 H58         4.7510   -4.5970    0.1050 h1        1 MOL      0.067279
    129 H59         3.9300   -4.2370   -2.1730 h1        1 MOL      0.087820
    130 H60         5.5910   -3.9110   -2.1300 h1        1 MOL      0.087820
    131 H61         3.8230   -2.1320   -2.8430 ho        1 MOL      0.384421
    132 N12         7.1010   -3.3740   -0.2120 n         1 MOL     -0.415807
    133 C43         8.3930   -2.7800    0.0790 c3        1 MOL      0.165608
    134 C44         8.5000   -1.4690   -0.7030 c         1 MOL      0.410720
    135 O18         9.0020   -0.5280   -0.0970 o         1 MOL     -0.529377
    136 C45         9.5020   -3.7850   -0.3310 c3        1 MOL     -0.221176
    137 H62         7.0250   -4.2550   -0.6960 hn        1 MOL      0.264412
    138 H63         8.4860   -2.5810    1.1430 h1        1 MOL      0.074465
    139 H64        10.4570   -3.3750    0.0010 hc        1 MOL      0.070615
    140 H65         9.4380   -4.7410    0.1830 hc        1 MOL      0.070615
    141 H66         9.4930   -3.8880   -1.4130 hc        1 MOL      0.070615
    142 N13         7.9730   -1.3960   -1.8870 n         1 MOL     -0.335921
    143 C46         7.9310   -0.1980   -2.6800 c3        1 MOL      0.154808
    144 C47         7.0540    0.9360   -2.0320 c         1 MOL      0.322098
    145 O19         7.3190    2.1170   -2.1780 o         1 MOL     -0.508663
    146 C48         7.2590   -0.6210   -3.9670 c3        1 MOL     -0.334574
    147 H67         7.5030   -2.2190   -2.2240 hn        1 MOL      0.271716
    148 H68         8.9100    0.1840   -2.9520 h1        1 MOL      0.081307
    149 H69         6.2540   -0.9280   -3.6710 hc        1 MOL      0.081369
    150 H70         7.0770    0.3350   -4.4630 hc        1 MOL      0.081369
    151 H71         7.8880   -1.3110   -4.5370 hc        1 MOL      0.081369
    152 N14         5.9540    0.5680   -1.3790 n         1 MOL      0.013162
    153 C49         5.1760    1.5710   -0.6070 c3        1 MOL     -0.160119
    154 C50         5.9640    2.1420    0.6090 c         1 MOL      0.546020
    155 O20         5.9590    3.3560    0.7730 o         1 MOL     -0.571319
    156 C51         3.7930    0.9220   -0.2220 c3        1 MOL      0.047608
    157 C52         2.8600    0.8440   -1.4330 c3        1 MOL      0.020270
    158 C53         1.5070    0.2390   -1.0690 c         1 MOL      0.762805
    159 O21         1.1630   -0.8970   -1.5470 o         1 MOL     -0.790155
    160 O22         0.6400    0.8590   -0.4300 o         1 MOL     -0.790155
    161 H72         5.6100   -0.3770   -1.4010 hn        1 MOL      0.059362
    162 H73         4.8960    2.4540   -1.1760 h1        1 MOL      0.079440
    163 H74         3.3770    1.6000    0.5260 hc        1 MOL      0.027700
    164 H75         3.9430   -0.0890    0.1500 hc        1 MOL      0.027700
    165 H76         3.2000    0.4950   -2.4080 hc        1 MOL     -0.020205
    166 H77         2.7390    1.9000   -1.7080 hc        1 MOL     -0.020205
    167 N15         6.3980    1.2690    1.5130 n         1 MOL     -0.151576
    168 C54         7.1720    1.6790    2.6440 c3        1 MOL     -0.327455
    169 H78         7.7800    2.5420    2.3740 h1        1 MOL      0.121119
    170 H79         6.5050    1.9460    3.4640 h1        1 MOL      0.121119
    171 H80         7.8210    0.8610    2.9560 h1        1 MOL      0.121119
    172 H81         6.3980    0.2830    1.2770 hn        1 MOL      0.179319
    173 Ca1        -1.5160   -0.2800   -1.3530 Ca        1 MOL      1.797820
    174 O23        -0.9280   -2.5510   -2.5310 oh        1 MOL     -0.802341
    175 H82        -0.6630   -2.8110   -3.4230 ho        1 MOL      0.398717
    176 H83        -0.2860   -2.9630   -1.9600 ho        1 MOL      0.398717
    177 O24        -0.4650    0.0400   -4.1200 oh        1 MOL     -0.802341
    178 H84        -0.8790   -0.4050   -4.8530 ho        1 MOL      0.398717
    179 H85        -0.2280    0.9050   -4.4670 ho        1 MOL      0.398717
@<TRIPOS>BOND
     1    1    2 1   
     2    1    4 1   
     3    1    5 1   
     4    1    6 1   
     5    2    3 2   
     6    2    7 1   
     7    7    8 1   
     8    7   15 1   
     9    8    9 1   
    10    8   11 1   
    11    8   16 1   
    12    9   10 2   
    13    9   19 1   
    14   11   12 1   
    15   11   17 1   
    16   11   18 1   
    17   12   13 1   
    18   12   14 1   
    19   19   20 1   
    20   19   28 1   
    21   20   21 1   
    22   20   23 1   
    23   20   29 1   
    24   21   22 2   
    25   21   41 1   
    26   23   24 1   
    27   23   30 1   
    28   23   31 1   
    29   24   25 1   
    30   24   32 1   
    31   24   33 1   
    32   25   26 1   
    33   25   34 1   
    34   25   35 1   
    35   26   27 1   
    36   26   36 1   
    37   26   37 1   
    38   27   38 1   
    39   27   39 1   
    40   27   40 1   
    41   41   42 1   
    42   41   49 1   
    43   42   43 1   
    44   42   45 1   
    45   42   50 1   
    46   43   44 2   
    47   43   53 1   
    48   45   46 1   
    49   45   51 1   
    50   45   52 1   
    51   46   47 1   
    52   46   48 1   
    53   53   54 1   
    54   53   57 1   
    55   54   55 1   
    56   54   58 1   
    57   54   59 1   
    58   55   56 2   
    59   55   60 1   
    60   60   61 1   
    61   60   68 1   
    62   61   62 1   
    63   61   64 1   
    64   61   69 1   
    65   62   63 2   
    66   62   74 1   
    67   64   65 1   
    68   64   70 1   
    69   64   71 1   
    70   65   66 1   
    71   65   67 2   
    72   66   72 1   
    73   66   73 1   
    74   74   75 1   
    75   74   78 1   
    76   75   76 1   
    77   75   79 1   
    78   75   80 1   
    79   76   77 2   
    80   76   81 1   
    81   81   82 1   
    82   81   93 1   
    83   82   83 1   
    84   82   85 1   
    85   82   94 1   
    86   83   84 2   
    87   83  102 1   
    88   85   86 1   
    89   85   95 1   
    90   85   96 1   
    91   86   87 ar  
    92   86   88 ar  
    93   87   89 ar  
    94   87   97 1   
    95   88   90 ar  
    96   88   98 1   
    97   89   91 ar  
    98   89   99 1   
    99   90   91 ar  
   100   90  100 1   
   101   91   92 1   
   102   92  101 1   
   103  102  103 1   
   104  102  110 1   
   105  103  104 1   
   106  103  106 1   
   107  103  111 1   
   108  104  105 2   
   109  104  121 1   
   110  106  107 1   
   111  106  108 1   
   112  106  112 1   
   113  107  109 1   
   114  107  113 1   
   115  107  114 1   
   116  108  115 1   
   117  108  116 1   
   118  108  117 1   
   119  109  118 1   
   120  109  119 1   
   121  109  120 1   
   122  121  122 1   
   123  121  127 1   
   124  122  123 1   
   125  122  125 1   
   126  122  128 1   
   127  123  124 2   
   128  123  132 1   
   129  125  126 1   
   130  125  129 1   
   131  125  130 1   
   132  126  131 1   
   133  132  133 1   
   134  132  137 1   
   135  133  134 1   
   136  133  136 1   
   137  133  138 1   
   138  134  135 2   
   139  134  142 1   
   140  136  139 1   
   141  136  140 1   
   142  136  141 1   
   143  142  143 1   
   144  142  147 1   
   145  143  144 1   
   146  143  146 1   
   147  143  148 1   
   148  144  145 2   
   149  144  152 1   
   150  146  149 1   
   151  146  150 1   
   152  146  151 1   
   153  152  153 1   
   154  152  161 1   
   155  153  154 1   
   156  153  156 1   
   157  153  162 1   
   158  154  155 2   
   159  154  167 1   
   160  156  157 1   
   161  156  163 1   
   162  156  164 1   
   163  157  158 1   
   164  157  165 1   
   165  157  166 1   
   166  158  159 1   
   167  158  160 1   
   168  167  168 1   
   169  167  172 1   
   170  168  169 1   
   171  168  170 1   
   172  168  171 1   
   173  174  175 1   
   174  174  176 1   
   175  177  178 1   
   176  177  179 1   
@<TRIPOS>SUBSTRUCTURE
     1 MOL         1 TEMP              0 ****  ****    0 ROOT
