@<TRIPOS>MOLECULE
MOL
  179   176     1     0     0
SMALL
resp


@<TRIPOS>ATOM
      1 C1          1.9800    2.9990    5.6930 c3        1 MOL     -0.442320
      2 C2          1.4000    2.6020    4.3650 c         1 MOL      0.712790
      3 O1          2.2160    2.3240    3.4480 o         1 MOL     -0.624978
      4 H1          1.1730    3.2510    6.3810 hc        1 MOL      0.118341
      5 H2          2.5570    2.1680    6.1000 hc        1 MOL      0.118341
      6 H3          2.6290    3.8640    5.5620 hc        1 MOL      0.118341
      7 N1          0.1280    2.7040    4.1310 n         1 MOL     -0.472654
      8 C3         -0.5230    2.4540    2.8370 c3        1 MOL     -0.117518
      9 C4         -0.6420    3.7880    1.9440 c         1 MOL      0.593080
     10 O2         -1.3120    4.7420    2.3340 o         1 MOL     -0.561256
     11 C5         -1.9270    1.8250    3.0780 c3        1 MOL      0.086057
     12 C6         -2.5930    1.3530    1.7380 c         1 MOL      0.573961
     13 O3         -2.0290    1.6070    0.5980 o         1 MOL     -0.671582
     14 O4         -3.6740    0.7590    1.8030 o         1 MOL     -0.671582
     15 H4         -0.4770    2.8180    4.9280 hn        1 MOL      0.309107
     16 H5          0.1390    1.7940    2.2940 h1        1 MOL     -0.025259
     17 H6         -2.6250    2.4440    3.6290 hc        1 MOL      0.008441
     18 H7         -1.7720    0.9480    3.7030 hc        1 MOL      0.008441
     19 N2          0.0220    3.9070    0.8530 n         1 MOL     -0.313681
     20 C7          0.1520    5.1270    0.0750 c3        1 MOL     -0.052296
     21 C8         -1.0270    5.6080   -0.5990 c         1 MOL      0.533276
     22 O5         -1.2070    6.8040   -0.5060 o         1 MOL     -0.544472
     23 C9          1.4740    5.1510   -0.7610 c3        1 MOL     -0.265307
     24 C10         2.7100    4.7730    0.1010 c3        1 MOL      0.109046
     25 C11         4.0950    4.9210   -0.5530 c3        1 MOL     -0.057366
     26 C12         4.3770    6.4260   -0.8160 c3        1 MOL      0.008323
     27 N3          5.4280    6.4750   -1.8250 n4        1 MOL     -0.295599
     28 H8          0.5610    3.1240    0.5230 hn        1 MOL      0.338016
     29 H9          0.3520    5.9010    0.8130 h1        1 MOL      0.092290
     30 H10         1.5900    6.2020   -1.0030 hc        1 MOL      0.065242
     31 H11         1.4500    4.5940   -1.6970 hc        1 MOL      0.065242
     32 H12         2.5540    3.7510    0.4320 hc        1 MOL      0.038652
     33 H13         2.7380    5.3930    1.0030 hc        1 MOL      0.038652
     34 H14         4.0940    4.3830   -1.4970 hc        1 MOL      0.051914
     35 H15         4.8220    4.4830    0.1270 hc        1 MOL      0.051914
     36 H16         4.6930    6.9380    0.0970 hx        1 MOL      0.099797
     37 H17         3.5230    6.9870   -1.2070 hx        1 MOL      0.099797
     38 H18         5.2040    6.1720   -2.7630 hn        1 MOL      0.306771
     39 H19         5.8290    7.4020   -1.8890 hn        1 MOL      0.306771
     40 H20         6.1850    5.8410   -1.6270 hn        1 MOL      0.306771
     41 N4         -1.8450    4.6990   -1.2120 n         1 MOL     -0.335866
     42 C13        -3.1540    5.0880   -1.7350 c3        1 MOL      0.142344
     43 C14        -4.2970    4.7000   -0.8450 c         1 MOL      0.376633
     44 O6         -5.4270    5.1970   -1.0480 o         1 MOL     -0.538126
     45 C15        -3.2210    4.5350   -3.1480 c3        1 MOL     -0.211992
     46 C16        -2.9340    3.0580   -3.3690 c         1 MOL      0.714576
     47 O7         -2.7510    2.3240   -2.3810 o         1 MOL     -0.702122
     48 O8         -2.8810    2.5210   -4.4840 o         1 MOL     -0.702122
     49 H21        -1.7110    3.7070   -1.0390 hn        1 MOL      0.108718
     50 H22        -3.2620    6.1670   -1.8670 h1        1 MOL      0.086368
     51 H23        -2.5000    5.0900   -3.7500 hc        1 MOL      0.048718
     52 H24        -4.2340    4.6840   -3.5130 hc        1 MOL      0.048718
     53 N5         -4.1210    4.0030    0.2560 n         1 MOL     -0.054584
     54 C17        -5.1510    3.6130    1.1640 c3        1 MOL     -0.187434
     55 C18        -6.1150    2.5900    0.5810 c         1 MOL      0.511504
     56 O9         -7.3090    2.5190    0.8800 o         1 MOL     -0.562726
     57 H25        -3.1760    3.7570    0.5250 hn        1 MOL      0.129888
     58 H26        -5.7340    4.4930    1.4360 h1        1 MOL      0.100156
     59 H27        -4.8000    3.1680    2.0950 h1        1 MOL      0.100156
     60 N6         -5.5800    1.6430   -0.1870 n         1 MOL     -0.098408
     61 C19        -6.3300    0.5860   -0.8580 c3        1 MOL     -0.162245
     62 C20        -6.6320   -0.7220    0.0140 c         1 MOL      0.351540
     63 O10        -7.3040   -1.6460   -0.4480 o         1 MOL     -0.435691
     64 C21        -5.5760    0.3090   -2.2200 c3        1 MOL     -0.401279
     65 C22        -4.4490   -0.7560   -2.1420 c         1 MOL      0.573602
     66 N7         -4.4810   -1.7130   -3.0150 n         1 MOL     -0.538861
     67 O11        -3.5530   -0.6670   -1.3520 o         1 MOL     -0.632186
     68 H28        -4.5810    1.5720   -0.3700 hn        1 MOL      0.128266
     69 H29        -7.3030    0.9480   -1.2000 h1        1 MOL      0.168878
     70 H30        -5.2580    1.2550   -2.6710 hc        1 MOL      0.164022
     71 H31        -6.3260   -0.1770   -2.8440 hc        1 MOL      0.164022
     72 H32        -5.0940   -1.7050   -3.8100 hn        1 MOL      0.308175
     73 H33        -3.8620   -2.4970   -2.9010 hn        1 MOL      0.308175
     74 N8         -6.0310   -0.8000    1.2450 n         1 MOL     -0.183235
     75 C23        -5.9900   -1.9880    2.1630 c3        1 MOL     -0.387595
     76 C24        -4.7500   -2.9630    2.0520 c         1 MOL      0.675785
     77 O12        -4.6270   -3.9430    2.8190 o         1 MOL     -0.569289
     78 H34        -5.4120   -0.0310    1.4750 hn        1 MOL      0.265118
     79 H35        -6.8620   -2.6380    2.1060 h1        1 MOL      0.170927
     80 H36        -5.9420   -1.5000    3.1330 h1        1 MOL      0.170927
     81 N9         -3.8220   -2.6230    1.0900 n         1 MOL     -0.615155
     82 C25        -2.6700   -3.4520    0.7830 c3        1 MOL      0.247818
     83 C26        -1.3780   -2.7150    0.7340 c         1 MOL      0.564195
     84 O13        -1.1960   -1.9830   -0.2220 o         1 MOL     -0.596141
     85 C27        -3.0160   -4.2010   -0.5160 c3        1 MOL      0.076859
     86 C28        -4.2510   -4.9850   -0.5050 ca        1 MOL     -0.022748
     87 C29        -5.4700   -4.4050   -0.8870 ca        1 MOL     -0.154064
     88 C30        -4.1710   -6.3320   -0.1470 ca        1 MOL     -0.154064
     89 C31        -6.6390   -5.1960   -0.8560 ca        1 MOL     -0.229831
     90 C32        -5.2660   -7.1000   -0.0480 ca        1 MOL     -0.229831
     91 C33        -6.5470   -6.5350   -0.3590 ca        1 MOL      0.341995
     92 O14        -7.6550   -7.3540   -0.3010 oh        1 MOL     -0.504566
     93 H37        -3.9640   -1.7260    0.6560 hn        1 MOL      0.416429
     94 H38        -2.5930   -4.2640    1.5040 h1        1 MOL      0.036709
     95 H39        -2.1770   -4.8870   -0.6230 hc        1 MOL     -0.034107
     96 H40        -2.9230   -3.5310   -1.3740 hc        1 MOL     -0.034107
     97 H41        -5.4600   -3.3880   -1.2610 ha        1 MOL      0.115980
     98 H42        -3.2490   -6.7770    0.1910 ha        1 MOL      0.115980
     99 H43        -7.6080   -4.7710   -1.0950 ha        1 MOL      0.138861
    100 H44        -5.2050   -8.1510    0.1670 ha        1 MOL      0.138861
    101 H45        -7.4770   -8.2300    0.0440 ho        1 MOL      0.365457
    102 N10        -0.4920   -3.0140    1.6570 n         1 MOL     -0.674581
    103 C34         0.8640   -2.4840    1.6260 c3        1 MOL      0.157142
    104 C35         1.7150   -3.3940    0.7160 c         1 MOL      0.666350
    105 O15         1.9480   -4.5120    1.0610 o         1 MOL     -0.561735
    106 C36         1.3940   -2.2690    3.0750 c3        1 MOL     -0.053815
    107 C37         0.6030   -1.2070    3.7620 c3        1 MOL      0.240651
    108 C38         2.8450   -1.8010    3.1220 c3        1 MOL     -0.038735
    109 C39         0.8950   -0.9170    5.1540 c3        1 MOL     -0.306118
    110 H46        -0.7010   -3.6520    2.4170 hn        1 MOL      0.341783
    111 H47         0.7860   -1.4820    1.1990 h1        1 MOL      0.000159
    112 H48         1.2860   -3.2250    3.5770 hc        1 MOL      0.035693
    113 H49        -0.4700   -1.3710    3.6680 hc        1 MOL     -0.006691
    114 H50         0.6880   -0.2900    3.1860 hc        1 MOL     -0.006691
    115 H51         3.2260   -1.9010    4.1350 hc        1 MOL      0.007618
    116 H52         3.5770   -2.4630    2.6650 hc        1 MOL      0.007618
    117 H53         2.9700   -0.7780    2.7780 hc        1 MOL      0.007618
    118 H54         0.1780   -0.1270    5.4030 hc        1 MOL      0.060238
    119 H55         0.7010   -1.7370    5.8530 hc        1 MOL      0.060238
    120 H56         1.9150   -0.5330    5.2210 hc        1 MOL      0.060238
    121 N11         2.3310   -2.7860   -0.3090 n         1 MOL     -0.339392
    122 C40         3.2670   -3.4540   -1.1720 c3        1 MOL     -0.018548
    123 C41         4.7200   -3.5050   -0.6310 c         1 MOL      0.384043
    124 O16         4.9730   -2.7900    0.3190 o         1 MOL     -0.365474
    125 C42         3.2460   -2.8000   -2.5510 c3        1 MOL     -0.046488
    126 O17         3.9100   -1.6320   -2.6890 oh        1 MOL     -0.477300
    127 H57         2.1110   -1.8210   -0.5100 hn        1 MOL      0.135376
    128 H58         3.0110   -4.5040   -1.3040 h1        1 MOL      0.070431
    129 H59         2.2150   -2.6760   -2.8710 h1        1 MOL      0.072532
    130 H60         3.6020   -3.4920   -3.3000 h1        1 MOL      0.072532
    131 H61         3.1910   -1.0350   -2.8930 ho        1 MOL      0.382434
    132 N12         5.6030   -4.4520   -1.1350 n         1 MOL     -0.362141
    133 C43         6.9840   -4.4220   -0.6800 c3        1 MOL      0.031298
    134 C44         7.7420   -3.1400   -0.9780 c         1 MOL      0.519526
    135 O18         8.6320   -2.7630   -0.2340 o         1 MOL     -0.498527
    136 C45         7.7480   -5.5520   -1.4220 c3        1 MOL     -0.200067
    137 H62         5.3500   -5.1030   -1.8700 hn        1 MOL      0.273315
    138 H63         6.9960   -4.7140    0.3800 h1        1 MOL      0.093145
    139 H64         7.9830   -5.2220   -2.4250 hc        1 MOL      0.068176
    140 H65         8.6950   -5.6460   -0.9030 hc        1 MOL      0.068176
    141 H66         7.2250   -6.5120   -1.3930 hc        1 MOL      0.068176
    142 N13         7.3350   -2.4930   -2.0960 n         1 MOL     -0.429207
    143 C46         7.6430   -1.1120   -2.2960 c3        1 MOL      0.152202
    144 C47         7.1570   -0.0680   -1.2220 c         1 MOL      0.317852
    145 O19         7.7740    0.9500   -0.9860 o         1 MOL     -0.516256
    146 C48         7.0550   -0.6750   -3.6750 c3        1 MOL     -0.312739
    147 H67         6.5710   -2.9150   -2.6140 hn        1 MOL      0.265147
    148 H68         8.7160   -0.9640   -2.2420 h1        1 MOL      0.064815
    149 H69         5.9750   -0.5300   -3.5980 hc        1 MOL      0.081595
    150 H70         7.5530    0.2740   -3.8970 hc        1 MOL      0.081595
    151 H71         7.3380   -1.3940   -4.4370 hc        1 MOL      0.081595
    152 N14         5.9780   -0.3060   -0.6590 n         1 MOL     -0.058261
    153 C49         5.3760    0.6360    0.3210 c3        1 MOL     -0.002314
    154 C50         5.9060    0.4920    1.7000 c         1 MOL      0.499215
    155 O20         6.1870    1.4770    2.3700 o         1 MOL     -0.544501
    156 C51         3.8920    0.4670    0.2920 c3        1 MOL      0.141112
    157 C52         3.2460    1.1840   -0.8530 c3        1 MOL      0.107265
    158 C53         1.7690    0.8340   -1.0450 c         1 MOL      0.549426
    159 O21         0.9330    1.5430   -0.4660 o         1 MOL     -0.674952
    160 O22         1.3170   -0.1310   -1.6930 o         1 MOL     -0.674952
    161 H72         5.4080   -1.0810   -0.9620 hn        1 MOL      0.210164
    162 H73         5.6150    1.6690    0.0890 h1        1 MOL      0.005131
    163 H74         3.6840    0.9490    1.2540 hc        1 MOL      0.030931
    164 H75         3.7030   -0.6080    0.2350 hc        1 MOL      0.030931
    165 H76         3.8230    0.8610   -1.7120 hc        1 MOL     -0.109977
    166 H77         3.3040    2.2530   -0.6350 hc        1 MOL     -0.109977
    167 N15         6.3160   -0.7700    2.1060 n         1 MOL     -0.160340
    168 C54         7.2130   -1.1070    3.2240 c3        1 MOL     -0.207167
    169 H78         7.9880   -1.7890    2.8740 h1        1 MOL      0.097052
    170 H79         7.6760   -0.1970    3.6040 h1        1 MOL      0.097052
    171 H80         6.6400   -1.5850    4.0190 h1        1 MOL      0.097052
    172 H81         6.1950   -1.4330    1.3590 hn        1 MOL      0.072921
    173 Ca1        -1.2720    0.4520   -1.4820 Ca        1 MOL      1.750203
    174 O23        -0.3210    1.2700   -3.8830 oh        1 MOL     -0.798101
    175 H82         0.1830    0.9900   -4.6480 ho        1 MOL      0.398475
    176 H83        -0.5590    2.1720   -4.0650 ho        1 MOL      0.398475
    177 O24        -1.4510   -1.4970   -3.2550 oh        1 MOL     -0.798101
    178 H84        -1.7200   -1.5350   -4.1740 ho        1 MOL      0.398475
    179 H85        -1.1250   -2.3810   -3.0720 ho        1 MOL      0.398475
@<TRIPOS>BOND
     1    1    2 1   
     2    1    4 1   
     3    1    5 1   
     4    1    6 1   
     5    2    3 2   
     6    2    7 1   
     7    7    8 1   
     8    7   15 1   
     9    8    9 1   
    10    8   11 1   
    11    8   16 1   
    12    9   10 2   
    13    9   19 1   
    14   11   12 1   
    15   11   17 1   
    16   11   18 1   
    17   12   13 1   
    18   12   14 1   
    19   19   20 1   
    20   19   28 1   
    21   20   21 1   
    22   20   23 1   
    23   20   29 1   
    24   21   22 2   
    25   21   41 1   
    26   23   24 1   
    27   23   30 1   
    28   23   31 1   
    29   24   25 1   
    30   24   32 1   
    31   24   33 1   
    32   25   26 1   
    33   25   34 1   
    34   25   35 1   
    35   26   27 1   
    36   26   36 1   
    37   26   37 1   
    38   27   38 1   
    39   27   39 1   
    40   27   40 1   
    41   41   42 1   
    42   41   49 1   
    43   42   43 1   
    44   42   45 1   
    45   42   50 1   
    46   43   44 2   
    47   43   53 1   
    48   45   46 1   
    49   45   51 1   
    50   45   52 1   
    51   46   47 1   
    52   46   48 1   
    53   53   54 1   
    54   53   57 1   
    55   54   55 1   
    56   54   58 1   
    57   54   59 1   
    58   55   56 2   
    59   55   60 1   
    60   60   61 1   
    61   60   68 1   
    62   61   62 1   
    63   61   64 1   
    64   61   69 1   
    65   62   63 2   
    66   62   74 1   
    67   64   65 1   
    68   64   70 1   
    69   64   71 1   
    70   65   66 1   
    71   65   67 2   
    72   66   72 1   
    73   66   73 1   
    74   74   75 1   
    75   74   78 1   
    76   75   76 1   
    77   75   79 1   
    78   75   80 1   
    79   76   77 2   
    80   76   81 1   
    81   81   82 1   
    82   81   93 1   
    83   82   83 1   
    84   82   85 1   
    85   82   94 1   
    86   83   84 2   
    87   83  102 1   
    88   85   86 1   
    89   85   95 1   
    90   85   96 1   
    91   86   87 ar  
    92   86   88 ar  
    93   87   89 ar  
    94   87   97 1   
    95   88   90 ar  
    96   88   98 1   
    97   89   91 ar  
    98   89   99 1   
    99   90   91 ar  
   100   90  100 1   
   101   91   92 1   
   102   92  101 1   
   103  102  103 1   
   104  102  110 1   
   105  103  104 1   
   106  103  106 1   
   107  103  111 1   
   108  104  105 2   
   109  104  121 1   
   110  106  107 1   
   111  106  108 1   
   112  106  112 1   
   113  107  109 1   
   114  107  113 1   
   115  107  114 1   
   116  108  115 1   
   117  108  116 1   
   118  108  117 1   
   119  109  118 1   
   120  109  119 1   
   121  109  120 1   
   122  121  122 1   
   123  121  127 1   
   124  122  123 1   
   125  122  125 1   
   126  122  128 1   
   127  123  124 2   
   128  123  132 1   
   129  125  126 1   
   130  125  129 1   
   131  125  130 1   
   132  126  131 1   
   133  132  133 1   
   134  132  137 1   
   135  133  134 1   
   136  133  136 1   
   137  133  138 1   
   138  134  135 2   
   139  134  142 1   
   140  136  139 1   
   141  136  140 1   
   142  136  141 1   
   143  142  143 1   
   144  142  147 1   
   145  143  144 1   
   146  143  146 1   
   147  143  148 1   
   148  144  145 2   
   149  144  152 1   
   150  146  149 1   
   151  146  150 1   
   152  146  151 1   
   153  152  153 1   
   154  152  161 1   
   155  153  154 1   
   156  153  156 1   
   157  153  162 1   
   158  154  155 2   
   159  154  167 1   
   160  156  157 1   
   161  156  163 1   
   162  156  164 1   
   163  157  158 1   
   164  157  165 1   
   165  157  166 1   
   166  158  159 1   
   167  158  160 1   
   168  167  168 1   
   169  167  172 1   
   170  168  169 1   
   171  168  170 1   
   172  168  171 1   
   173  174  175 1   
   174  174  176 1   
   175  177  178 1   
   176  177  179 1   
@<TRIPOS>SUBSTRUCTURE
     1 MOL         1 TEMP              0 ****  ****    0 ROOT
