@<TRIPOS>MOLECULE
MOL
  172   171     1     0     0
SMALL
resp


@<TRIPOS>ATOM
      1 C1          0.3610    3.9490    5.6770 c3        1 MOL     -0.269457
      2 C2         -0.1060    4.0290    4.2560 c         1 MOL      0.742749
      3 O1          0.7060    4.3690    3.4050 o         1 MOL     -0.565726
      4 H1         -0.1430    3.1220    6.1780 hc        1 MOL      0.060392
      5 H2          1.4380    3.7830    5.6960 hc        1 MOL      0.060392
      6 H3          0.1270    4.8810    6.1900 hc        1 MOL      0.060392
      7 N1         -1.3830    3.6750    3.9890 n         1 MOL     -0.733153
      8 C3         -1.8400    3.3830    2.6260 c3        1 MOL      0.350131
      9 C4         -2.0800    4.6450    1.7700 c         1 MOL      0.537990
     10 O2         -2.4720    5.6730    2.2830 o         1 MOL     -0.572937
     11 C5         -3.0610    2.5510    2.7340 c3        1 MOL     -0.184073
     12 C6         -4.0290    2.3540    1.5270 c         1 MOL      0.581012
     13 O3         -5.1490    2.8690    1.6290 o         1 MOL     -0.606092
     14 O4         -3.6370    1.8450    0.4610 o         1 MOL     -0.606092
     15 H4         -1.9420    3.3530    4.7560 hn        1 MOL      0.349002
     16 H5         -1.1140    2.9050    1.9760 h1        1 MOL      0.016437
     17 H6         -3.7080    3.0670    3.4490 hc        1 MOL      0.003739
     18 H7         -2.8650    1.6070    3.2300 hc        1 MOL      0.003739
     19 N2         -2.1530    4.4380    0.4480 n         1 MOL     -0.540532
     20 C7         -2.4600    5.4730   -0.5910 c3        1 MOL      0.370029
     21 C8         -3.3650    5.0200   -1.7440 c         1 MOL      0.412825
     22 O5         -3.6190    5.8850   -2.6270 o         1 MOL     -0.578240
     23 C9         -1.1910    6.1700   -1.0480 c3        1 MOL     -0.286295
     24 H8         -1.8360    3.5250    0.1690 hn        1 MOL      0.330365
     25 H9         -3.0440    6.3030   -0.1840 h1        1 MOL      0.016760
     26 H10        -0.5060    6.1620   -0.2070 hc        1 MOL      0.064822
     27 H11        -0.6830    5.6090   -1.8430 hc        1 MOL      0.064822
     28 H12        -1.4170    7.1660   -1.4110 hc        1 MOL      0.064822
     29 N3         -3.9630    3.8180   -1.7760 n         1 MOL     -0.338185
     30 C10        -4.8350    3.3770   -2.8680 c3        1 MOL      0.192989
     31 C11        -6.1080    2.6730   -2.3830 c         1 MOL      0.367737
     32 O6         -6.9890    2.3350   -3.2300 o         1 MOL     -0.565709
     33 C12        -4.0520    2.4840   -3.9120 c3        1 MOL     -0.254625
     34 C13        -3.3960    1.2480   -3.2320 c         1 MOL      0.776454
     35 O7         -2.1800    1.0160   -3.2880 o         1 MOL     -0.746476
     36 O8         -4.0010    0.5660   -2.4050 o         1 MOL     -0.746476
     37 H13        -3.7300    3.1750   -1.0310 hn        1 MOL      0.203709
     38 H14        -5.1690    4.2670   -3.3930 h1        1 MOL      0.056366
     39 H15        -3.2780    3.0680   -4.4070 hc        1 MOL      0.062692
     40 H16        -4.7800    2.0880   -4.6190 hc        1 MOL      0.062692
     41 N4         -6.2220    2.3620   -1.1090 n         1 MOL     -0.211306
     42 C14        -7.3710    1.6010   -0.5410 c3        1 MOL     -0.100023
     43 C15        -7.4590    0.0610   -0.5690 c         1 MOL      0.528949
     44 O9         -8.3870   -0.6020   -0.1760 o         1 MOL     -0.620439
     45 H17        -5.4640    2.4430   -0.4420 hn        1 MOL      0.144317
     46 H18        -8.3340    1.9100   -0.9620 h1        1 MOL      0.073952
     47 H19        -7.3930    1.7670    0.5330 h1        1 MOL      0.073952
     48 N5         -6.4850   -0.5110   -1.2370 n         1 MOL     -0.129687
     49 C16        -6.6180   -1.9530   -1.6580 c3        1 MOL     -0.096677
     50 C17        -6.4600   -2.9990   -0.4920 c         1 MOL      0.485800
     51 O10        -6.5040   -4.1870   -0.7200 o         1 MOL     -0.539047
     52 C18        -5.5640   -2.1760   -2.7380 c3        1 MOL     -0.311528
     53 C19        -4.1900   -2.3300   -2.1370 c         1 MOL      0.727423
     54 N6         -3.2260   -2.6040   -2.9840 n         1 MOL     -0.737509
     55 O11        -3.9270   -2.1220   -0.9260 o         1 MOL     -0.709762
     56 H20        -5.6210   -0.0540   -1.4410 hn        1 MOL      0.146007
     57 H21        -7.6000   -2.0860   -2.1080 h1        1 MOL      0.127362
     58 H22        -5.6660   -1.3170   -3.4150 hc        1 MOL      0.117239
     59 H23        -5.6830   -3.0770   -3.3380 hc        1 MOL      0.117239
     60 H24        -3.3930   -2.7990   -3.9640 hn        1 MOL      0.360758
     61 H25        -2.3040   -2.7670   -2.6180 hn        1 MOL      0.360758
     62 N7         -6.2090   -2.6090    0.7610 n         1 MOL     -0.158852
     63 C20        -6.1640   -3.4900    1.9250 c3        1 MOL     -0.376247
     64 C21        -4.8180   -4.3000    1.9930 c         1 MOL      0.640360
     65 O12        -4.8390   -5.2790    2.7430 o         1 MOL     -0.602434
     66 H26        -6.0470   -1.6390    0.9990 hn        1 MOL      0.207826
     67 H27        -7.0350   -4.1460    1.8500 h1        1 MOL      0.150536
     68 H28        -6.1740   -2.9060    2.8420 h1        1 MOL      0.150536
     69 N8         -3.7690   -3.8620    1.3580 n         1 MOL     -0.448812
     70 C22        -2.4450   -4.5800    1.2870 c3        1 MOL     -0.147370
     71 C23        -1.3420   -3.5660    1.0130 c         1 MOL      0.714987
     72 O13        -1.4140   -2.6860    0.1580 o         1 MOL     -0.654871
     73 C24        -2.3510   -5.6390    0.1860 c3        1 MOL      0.389113
     74 C25        -1.0750   -6.1680   -0.3710 c3        1 MOL     -0.310703
     75 O14        -2.9750   -6.8300    0.6430 oh        1 MOL     -0.652139
     76 H29        -3.8690   -2.9530    0.9440 hn        1 MOL      0.358750
     77 H30        -2.2030   -4.9940    2.2680 h1        1 MOL      0.101487
     78 H31        -3.0070   -5.4360   -0.6640 h1        1 MOL      0.038432
     79 H32        -3.9100   -6.6100    0.7080 ho        1 MOL      0.397748
     80 H33        -0.4080   -6.5570    0.4030 hc        1 MOL      0.087259
     81 H34        -1.3430   -6.8580   -1.1790 hc        1 MOL      0.087259
     82 H35        -0.4580   -5.4060   -0.8420 hc        1 MOL      0.087259
     83 N9         -0.3870   -3.5490    1.9430 n         1 MOL     -0.529492
     84 C26         0.8290   -2.6970    1.9540 c3        1 MOL     -0.018430
     85 C27         1.7240   -3.0140    0.7270 c         1 MOL      0.522343
     86 O15         2.3270   -4.0970    0.5760 o         1 MOL     -0.597410
     87 C28         1.4880   -2.8090    3.3820 c3        1 MOL     -0.095625
     88 C29         0.7540   -1.8310    4.2260 c3        1 MOL      0.193367
     89 C30         2.9860   -2.5170    3.2890 c3        1 MOL     -0.172074
     90 C31         1.0910   -1.9380    5.7200 c3        1 MOL     -0.121182
     91 H36        -0.3340   -4.3770    2.5240 hn        1 MOL      0.271723
     92 H37         0.4930   -1.6630    1.8820 h1        1 MOL      0.294812
     93 H38         1.4540   -3.8480    3.7170 hc        1 MOL      0.072943
     94 H39        -0.3220   -1.8650    4.0550 hc        1 MOL     -0.062044
     95 H40         0.9590   -0.8400    3.8280 hc        1 MOL     -0.062044
     96 H41         3.5700   -3.1480    2.6160 hc        1 MOL      0.037534
     97 H42         3.1900   -1.5490    2.8430 hc        1 MOL      0.037534
     98 H43         3.3570   -2.7900    4.2770 hc        1 MOL      0.037534
     99 H44         2.1410   -1.7640    5.9520 hc        1 MOL      0.017777
    100 H45         0.4810   -1.2730    6.3320 hc        1 MOL      0.017777
    101 H46         0.9020   -2.9800    5.9510 hc        1 MOL      0.017777
    102 N10         1.8840   -2.0320   -0.1840 n         1 MOL     -0.063809
    103 C32         2.7020   -2.1080   -1.3980 c3        1 MOL     -0.016622
    104 C33         4.0910   -1.5090   -1.0180 c         1 MOL      0.345495
    105 O16         4.2360   -0.9050    0.0270 o         1 MOL     -0.283747
    106 C34         2.0340   -1.3970   -2.5340 c3        1 MOL     -0.291655
    107 C35         0.5640   -1.8260   -2.7620 c         1 MOL      0.734383
    108 O17        -0.3090   -1.2620   -2.0990 o         1 MOL     -0.690317
    109 O18         0.3170   -2.6460   -3.7020 o         1 MOL     -0.690317
    110 H47         1.4070   -1.1590    0.0130 hn        1 MOL      0.004890
    111 H48         2.9100   -3.1200   -1.7640 h1        1 MOL      0.083602
    112 H49         2.5330   -1.5350   -3.4890 hc        1 MOL      0.079099
    113 H50         2.0910   -0.3260   -2.3440 hc        1 MOL      0.079099
    114 N11         5.2050   -1.8320   -1.7230 n         1 MOL     -0.499472
    115 C36         6.5720   -1.3710   -1.3910 c3        1 MOL      0.159256
    116 C37         6.7720    0.0980   -0.9290 c         1 MOL      0.373004
    117 O19         7.2830    0.3650    0.1340 o         1 MOL     -0.489842
    118 C38         7.5930   -1.7150   -2.4540 c3        1 MOL     -0.261355
    119 C39         8.9980   -1.5310   -2.0680 ca        1 MOL      0.134604
    120 C40         9.5150   -2.2280   -0.9470 ca        1 MOL     -0.137003
    121 C41         9.8470   -0.7740   -2.8410 ca        1 MOL     -0.137003
    122 C42        10.8940   -2.1160   -0.6260 ca        1 MOL     -0.163113
    123 C43        11.2230   -0.6600   -2.5930 ca        1 MOL     -0.163113
    124 C44        11.7190   -1.3040   -1.4520 ca        1 MOL     -0.069475
    125 H51         4.9750   -2.3880   -2.5420 hn        1 MOL      0.310584
    126 H52         6.7510   -2.0130   -0.5200 h1        1 MOL      0.104098
    127 H53         7.4260   -1.3460   -3.4640 hc        1 MOL      0.085890
    128 H54         7.5520   -2.8060   -2.5630 hc        1 MOL      0.085890
    129 H55         8.9410   -2.8870   -0.3070 ha        1 MOL      0.110682
    130 H56         9.4340   -0.1910   -3.6560 ha        1 MOL      0.110682
    131 H57        11.3590   -2.4610    0.2890 ha        1 MOL      0.126548
    132 H58        11.8910   -0.1150   -3.2530 ha        1 MOL      0.126548
    133 H59        12.7670   -1.3910   -1.2010 ha        1 MOL      0.082484
    134 N12         6.2990    1.1270   -1.6570 n         1 MOL     -0.033297
    135 C45         6.3590    2.4870   -1.1540 c3        1 MOL     -0.224860
    136 C46         5.5120    2.7420    0.0880 c         1 MOL      0.442571
    137 O20         5.8360    3.6160    0.8780 o         1 MOL     -0.501864
    138 C47         5.9970    3.4400   -2.3810 c3        1 MOL     -0.033313
    139 C48         4.9790    2.5140   -3.0960 c3        1 MOL      0.040413
    140 C49         5.4800    1.0980   -2.8460 c3        1 MOL     -0.032822
    141 H60         7.4120    2.6520   -0.9230 h1        1 MOL      0.128225
    142 H61         5.5040    4.3810   -2.1180 hc        1 MOL      0.048253
    143 H62         6.8460    3.7580   -2.9790 hc        1 MOL      0.048253
    144 H63         3.9730    2.5630   -2.6890 hc        1 MOL      0.009769
    145 H64         4.9860    2.8020   -4.1450 hc        1 MOL      0.009769
    146 H65         4.6570    0.4160   -2.6260 h1        1 MOL      0.019643
    147 H66         6.0470    0.7180   -3.7010 h1        1 MOL      0.019643
    148 N13         4.4460    1.9980    0.3620 n         1 MOL     -0.165801
    149 C50         3.7270    2.1290    1.5870 c3        1 MOL     -0.065584
    150 C51         4.5510    1.5880    2.7940 c         1 MOL      0.310334
    151 O21         4.7250    2.3230    3.8250 o         1 MOL     -0.530940
    152 C52         2.3250    1.5030    1.4490 c3        1 MOL      0.104146
    153 C53         1.6460    1.7410    0.1210 c3        1 MOL     -0.062763
    154 C54         0.1650    1.3450    0.2240 c         1 MOL      0.681415
    155 O22        -0.1470    0.2620    0.6840 o         1 MOL     -0.761453
    156 O23        -0.7680    2.0720   -0.2570 o         1 MOL     -0.761453
    157 H67         4.0910    1.3410   -0.3180 hn        1 MOL      0.198953
    158 H68         3.6530    3.1850    1.8430 h1        1 MOL      0.118097
    159 H69         1.5800    2.0020    2.0690 hc        1 MOL     -0.015979
    160 H70         2.3040    0.4450    1.6770 hc        1 MOL     -0.015979
    161 H71         2.1710    1.1690   -0.6420 hc        1 MOL      0.016525
    162 H72         1.6910    2.8240   -0.0230 hc        1 MOL      0.016525
    163 N14         5.2800    0.4700    2.6580 n         1 MOL      0.046840
    164 C55         6.3750   -0.0670    3.5310 c3        1 MOL     -0.289455
    165 H73         5.9400   -0.6760    4.3240 h1        1 MOL      0.102462
    166 H74         7.0500   -0.6770    2.9320 h1        1 MOL      0.102462
    167 H75         6.9280    0.7620    3.9720 h1        1 MOL      0.102462
    168 H76         5.2340    0.0140    1.7630 hn        1 MOL      0.064182
    169 Ca1        -2.1960   -0.1840   -0.7560 Ca        1 MOL      1.801425
    170 O24        -3.2220   -0.8470    1.8390 oh        1 MOL     -1.015561
    171 H77        -2.6810   -0.8000    2.6340 ho        1 MOL      0.474523
    172 H78        -4.1020   -0.6160    2.1360 ho        1 MOL      0.474523
@<TRIPOS>BOND
     1    1    2 1   
     2    1    4 1   
     3    1    5 1   
     4    1    6 1   
     5    2    3 2   
     6    2    7 1   
     7    7    8 1   
     8    7   15 1   
     9    8    9 1   
    10    8   11 1   
    11    8   16 1   
    12    9   10 2   
    13    9   19 1   
    14   11   12 1   
    15   11   17 1   
    16   11   18 1   
    17   12   13 1   
    18   12   14 1   
    19   19   20 1   
    20   19   24 1   
    21   20   21 1   
    22   20   23 1   
    23   20   25 1   
    24   21   22 2   
    25   21   29 1   
    26   23   26 1   
    27   23   27 1   
    28   23   28 1   
    29   29   30 1   
    30   29   37 1   
    31   30   31 1   
    32   30   33 1   
    33   30   38 1   
    34   31   32 2   
    35   31   41 1   
    36   33   34 1   
    37   33   39 1   
    38   33   40 1   
    39   34   35 1   
    40   34   36 1   
    41   41   42 1   
    42   41   45 1   
    43   42   43 1   
    44   42   46 1   
    45   42   47 1   
    46   43   44 2   
    47   43   48 1   
    48   48   49 1   
    49   48   56 1   
    50   49   50 1   
    51   49   52 1   
    52   49   57 1   
    53   50   51 2   
    54   50   62 1   
    55   52   53 1   
    56   52   58 1   
    57   52   59 1   
    58   53   54 1   
    59   53   55 2   
    60   54   60 1   
    61   54   61 1   
    62   62   63 1   
    63   62   66 1   
    64   63   64 1   
    65   63   67 1   
    66   63   68 1   
    67   64   65 2   
    68   64   69 1   
    69   69   70 1   
    70   69   76 1   
    71   70   71 1   
    72   70   73 1   
    73   70   77 1   
    74   71   72 2   
    75   71   83 1   
    76   73   74 1   
    77   73   75 1   
    78   73   78 1   
    79   74   80 1   
    80   74   81 1   
    81   74   82 1   
    82   75   79 1   
    83   83   84 1   
    84   83   91 1   
    85   84   85 1   
    86   84   87 1   
    87   84   92 1   
    88   85   86 2   
    89   85  102 1   
    90   87   88 1   
    91   87   89 1   
    92   87   93 1   
    93   88   90 1   
    94   88   94 1   
    95   88   95 1   
    96   89   96 1   
    97   89   97 1   
    98   89   98 1   
    99   90   99 1   
   100   90  100 1   
   101   90  101 1   
   102  102  103 1   
   103  102  110 1   
   104  103  104 1   
   105  103  106 1   
   106  103  111 1   
   107  104  105 2   
   108  104  114 1   
   109  106  107 1   
   110  106  112 1   
   111  106  113 1   
   112  107  108 1   
   113  107  109 1   
   114  114  115 1   
   115  114  125 1   
   116  115  116 1   
   117  115  118 1   
   118  115  126 1   
   119  116  117 2   
   120  116  134 1   
   121  118  119 1   
   122  118  127 1   
   123  118  128 1   
   124  119  120 ar  
   125  119  121 ar  
   126  120  122 ar  
   127  120  129 1   
   128  121  123 ar  
   129  121  130 1   
   130  122  124 ar  
   131  122  131 1   
   132  123  124 ar  
   133  123  132 1   
   134  124  133 1   
   135  134  135 1   
   136  134  140 1   
   137  135  136 1   
   138  135  138 1   
   139  135  141 1   
   140  136  137 2   
   141  136  148 1   
   142  138  139 1   
   143  138  142 1   
   144  138  143 1   
   145  139  140 1   
   146  139  144 1   
   147  139  145 1   
   148  140  146 1   
   149  140  147 1   
   150  148  149 1   
   151  148  157 1   
   152  149  150 1   
   153  149  152 1   
   154  149  158 1   
   155  150  151 2   
   156  150  163 1   
   157  152  153 1   
   158  152  159 1   
   159  152  160 1   
   160  153  154 1   
   161  153  161 1   
   162  153  162 1   
   163  154  155 1   
   164  154  156 1   
   165  163  164 1   
   166  163  168 1   
   167  164  165 1   
   168  164  166 1   
   169  164  167 1   
   170  170  171 1   
   171  170  172 1   
@<TRIPOS>SUBSTRUCTURE
     1 MOL         1 TEMP              0 ****  ****    0 ROOT
