@<TRIPOS>MOLECULE
MOL
  175   173     1     0     0
SMALL
resp


@<TRIPOS>ATOM
      1 C1          1.0060   -3.1740    6.1600 c3        1 MOL     -0.339750
      2 C2          1.0580   -2.8280    4.6690 c         1 MOL      0.838322
      3 O1          0.0740   -2.9270    3.9400 o         1 MOL     -0.653613
      4 H1          1.0330   -2.2550    6.7460 hc        1 MOL      0.076914
      5 H2          0.0840   -3.7150    6.3760 hc        1 MOL      0.076914
      6 H3          1.8630   -3.7960    6.4190 hc        1 MOL      0.076914
      7 N1          2.1870   -2.3590    4.2010 n         1 MOL     -0.755203
      8 C3          2.5840   -1.9810    2.8250 c3        1 MOL      0.266610
      9 C4          2.8170   -3.2970    2.0540 c         1 MOL      0.546649
     10 O2          3.7160   -4.0670    2.4050 o         1 MOL     -0.581326
     11 C5          3.7920   -1.0260    2.9240 c3        1 MOL     -0.151783
     12 C6          4.1670   -0.4210    1.5440 c         1 MOL      0.772117
     13 O3          5.1600    0.3390    1.4980 o         1 MOL     -0.753785
     14 O4          3.5490   -0.7810    0.5230 o         1 MOL     -0.753785
     15 H4          2.9700   -2.3680    4.8500 hn        1 MOL      0.326692
     16 H5          1.8060   -1.3490    2.3710 h1        1 MOL      0.013424
     17 H6          4.6090   -1.5850    3.3660 hc        1 MOL      0.028929
     18 H7          3.6000   -0.1630    3.5620 hc        1 MOL      0.028929
     19 N2          1.9560   -3.5670    1.0500 n         1 MOL     -0.292443
     20 C7          2.0150   -4.8010    0.2720 c3        1 MOL      0.120818
     21 C8          3.3020   -4.9840   -0.5600 c         1 MOL      0.446716
     22 O5          3.9040   -6.0800   -0.6370 o         1 MOL     -0.571789
     23 C9          0.6800   -4.9250   -0.5390 c3        1 MOL     -0.381337
     24 H8          1.3350   -2.8040    0.7980 hn        1 MOL      0.191365
     25 H9          2.0690   -5.5790    1.0380 h1        1 MOL      0.050107
     26 H10         0.6990   -5.8540   -1.1050 hc        1 MOL      0.109245
     27 H11        -0.1690   -4.7850    0.1190 hc        1 MOL      0.109245
     28 H12         0.6020   -4.0770   -1.2250 hc        1 MOL      0.109245
     29 N3          3.8350   -3.9220   -1.2100 n         1 MOL     -0.184487
     30 C10         4.9710   -3.9370   -2.1370 c3        1 MOL      0.001291
     31 C11         6.2310   -3.1830   -1.5870 c         1 MOL      0.474531
     32 O6          7.3230   -3.4480   -2.0350 o         1 MOL     -0.561389
     33 C12         4.6230   -3.4280   -3.5330 c3        1 MOL     -0.154214
     34 C13         4.0110   -2.0210   -3.5970 c         1 MOL      0.714577
     35 O7          3.8750   -1.3730   -2.5580 o         1 MOL     -0.719519
     36 O8          3.6450   -1.5210   -4.6850 o         1 MOL     -0.719519
     37 H13         3.3080   -3.0790   -1.0260 hn        1 MOL      0.120138
     38 H14         5.2320   -4.9770   -2.3030 h1        1 MOL      0.100784
     39 H15         3.8590   -4.0590   -3.9700 hc        1 MOL      0.041417
     40 H16         5.4620   -3.4460   -4.2290 hc        1 MOL      0.041417
     41 N4          6.0350   -2.4120   -0.5200 n         1 MOL     -0.233399
     42 C14         7.2370   -1.8060    0.1570 c3        1 MOL     -0.026255
     43 C15         7.5740   -0.3500   -0.3050 c         1 MOL      0.527654
     44 O9          8.6200    0.1590    0.1370 o         1 MOL     -0.597997
     45 H17         5.1310   -2.2980   -0.0770 hn        1 MOL      0.144280
     46 H18         8.1330   -2.4110    0.0250 h1        1 MOL      0.071070
     47 H19         7.1820   -1.8310    1.2430 h1        1 MOL      0.071070
     48 N5          6.7090    0.2800   -1.1040 n         1 MOL     -0.400232
     49 C16         7.0170    1.6790   -1.6160 c3        1 MOL     -0.066081
     50 C17         6.9170    2.8050   -0.5780 c         1 MOL      0.490418
     51 O10         7.2890    3.9180   -0.8730 o         1 MOL     -0.573359
     52 C18         6.2380    2.0180   -2.8570 c3        1 MOL     -0.141207
     53 C19         4.7450    2.1200   -2.5740 c         1 MOL      0.473910
     54 N6          4.0040    2.7510   -3.4880 n         1 MOL     -0.720108
     55 O11         4.2170    1.6460   -1.5560 o         1 MOL     -0.403074
     56 H20         5.8140   -0.1560   -1.2820 hn        1 MOL      0.291398
     57 H21         8.0700    1.6680   -1.9010 h1        1 MOL      0.133378
     58 H22         6.4520    1.3580   -3.6950 hc        1 MOL      0.079464
     59 H23         6.6080    2.9740   -3.2300 hc        1 MOL      0.079464
     60 H24         4.5450    3.2090   -4.1920 hn        1 MOL      0.355139
     61 H25         3.0660    3.0060   -3.2120 hn        1 MOL      0.355139
     62 N7          6.5710    2.5480    0.7150 n         1 MOL     -0.178371
     63 C20         6.5550    3.5170    1.8810 c3        1 MOL     -0.295633
     64 C21         5.1390    4.0160    2.2220 c         1 MOL      0.590026
     65 O12         4.9560    4.7710    3.1940 o         1 MOL     -0.587072
     66 H26         6.3260    1.6110    0.9890 hn        1 MOL      0.286314
     67 H27         7.1620    4.3910    1.6620 h1        1 MOL      0.138930
     68 H28         7.0210    3.0700    2.7670 h1        1 MOL      0.138930
     69 N8          4.0810    3.6960    1.4200 n         1 MOL     -0.307023
     70 C22         2.6240    4.0010    1.6820 c3        1 MOL     -0.130842
     71 C23         1.7540    2.7960    1.3800 c         1 MOL      0.644086
     72 O13         2.1080    1.8520    0.6010 o         1 MOL     -0.626292
     73 C24         2.0700    5.0780    0.6780 c3        1 MOL      0.389098
     74 C25         2.8780    6.3850    0.8000 c3        1 MOL     -0.357461
     75 O14         1.9740    4.6710   -0.6430 oh        1 MOL     -0.610374
     76 H29         4.3220    3.2950    0.5240 hn        1 MOL      0.207197
     77 H30         2.4850    4.4060    2.6810 h1        1 MOL      0.105289
     78 H31         1.1260    5.3090    1.1680 h1        1 MOL     -0.006531
     79 H32         2.5770    5.2330   -1.1260 ho        1 MOL      0.394651
     80 H33         2.8960    6.7690    1.8240 hc        1 MOL      0.091766
     81 H34         3.9310    6.2710    0.5480 hc        1 MOL      0.091766
     82 H35         2.4100    7.1880    0.2300 hc        1 MOL      0.091766
     83 N9          0.5470    2.8680    2.0250 n         1 MOL     -0.415748
     84 C26        -0.6120    1.9800    1.7530 c3        1 MOL     -0.132274
     85 C27        -1.5830    2.6850    0.7070 c         1 MOL      0.470769
     86 O15        -2.0330    3.8210    0.8440 o         1 MOL     -0.590630
     87 C28        -1.2590    1.3070    2.9490 c3        1 MOL      0.218305
     88 C29        -1.8030    2.3140    4.0640 c3        1 MOL     -0.050865
     89 C30        -0.3160    0.2560    3.5210 c3        1 MOL     -0.378550
     90 C31        -2.4180    1.6670    5.2770 c3        1 MOL     -0.163975
     91 H36         0.4210    3.6660    2.6260 hn        1 MOL      0.267931
     92 H37        -0.1870    1.1510    1.1790 h1        1 MOL      0.123947
     93 H38        -2.1130    0.7220    2.6370 hc        1 MOL     -0.084999
     94 H39        -2.6220    2.8360    3.5700 hc        1 MOL      0.029547
     95 H40        -1.0160    3.0280    4.2960 hc        1 MOL      0.029547
     96 H41        -0.1260   -0.5410    2.7970 hc        1 MOL      0.104575
     97 H42         0.6210    0.7840    3.7030 hc        1 MOL      0.104575
     98 H43        -0.7980   -0.1380    4.4160 hc        1 MOL      0.104575
     99 H44        -3.1790    1.0060    4.8380 hc        1 MOL      0.041331
    100 H45        -1.7280    1.1540    5.9490 hc        1 MOL      0.041331
    101 H46        -2.8880    2.4500    5.8550 hc        1 MOL      0.041331
    102 N10        -2.1220    1.9220   -0.2340 n         1 MOL     -0.156420
    103 C32        -3.2170    2.1980   -1.1760 c3        1 MOL      0.077865
    104 C33        -4.5390    1.6830   -0.6270 c         1 MOL      0.436240
    105 O16        -4.4960    0.9070    0.3980 o         1 MOL     -0.476055
    106 C34        -2.7990    1.5810   -2.5490 c3        1 MOL     -0.315222
    107 C35        -3.6360    1.9430   -3.7200 c         1 MOL      0.664014
    108 O17        -3.4760    1.2750   -4.7900 o         1 MOL     -0.693404
    109 O18        -4.5620    2.8290   -3.6280 o         1 MOL     -0.693404
    110 H47        -1.8320    0.9570   -0.2590 hn        1 MOL      0.084594
    111 H48        -3.2990    3.2630   -1.3720 h1        1 MOL      0.065586
    112 H49        -2.9450    0.5080   -2.4600 hc        1 MOL      0.120080
    113 H50        -1.7370    1.7880   -2.7020 hc        1 MOL      0.120080
    114 N11        -5.7180    1.8440   -1.2230 n         1 MOL     -0.455606
    115 C36        -6.9860    1.2680   -0.7740 c3        1 MOL      0.258293
    116 C37        -6.9520   -0.2570   -0.6130 c         1 MOL      0.339050
    117 O19        -7.3700   -0.7670    0.4130 o         1 MOL     -0.498948
    118 C38        -8.2240    1.6710   -1.5310 c3        1 MOL     -0.110957
    119 C39        -9.4810    1.3820   -0.8330 ca        1 MOL     -0.066966
    120 C40        -9.7760    1.8620    0.4690 ca        1 MOL     -0.028147
    121 C41       -10.4260    0.4670   -1.3830 ca        1 MOL     -0.028147
    122 C42       -11.0290    1.6320    1.1050 ca        1 MOL     -0.223899
    123 C43       -11.6900    0.3060   -0.8110 ca        1 MOL     -0.223899
    124 C44       -12.0250    0.8500    0.4800 ca        1 MOL     -0.019262
    125 H51        -5.6700    2.4230   -2.0560 hn        1 MOL      0.235876
    126 H52        -7.1010    1.6030    0.2530 h1        1 MOL      0.054782
    127 H53        -8.3520    1.2370   -2.5230 hc        1 MOL      0.062601
    128 H54        -8.2040    2.7570   -1.6160 hc        1 MOL      0.062601
    129 H55        -9.0310    2.5010    0.9190 ha        1 MOL      0.088534
    130 H56       -10.1900   -0.0270   -2.3120 ha        1 MOL      0.088534
    131 H57       -11.0840    2.1360    2.0520 ha        1 MOL      0.124342
    132 H58       -12.4480   -0.3180   -1.2510 ha        1 MOL      0.124342
    133 H59       -13.0590    0.7670    0.7910 ha        1 MOL      0.082357
    134 N12        -6.3940   -1.0390   -1.5450 n         1 MOL     -0.045725
    135 C45        -6.3400   -2.4500   -1.5010 c3        1 MOL     -0.041872
    136 C46        -5.5550   -2.9170   -0.2950 c         1 MOL      0.391746
    137 O20        -5.8510   -3.8730    0.3510 o         1 MOL     -0.516439
    138 C47        -5.6860   -2.9100   -2.8280 c3        1 MOL     -0.050500
    139 C48        -5.9850   -1.8900   -3.8410 c3        1 MOL     -0.151639
    140 C49        -6.0700   -0.6760   -2.9000 c3        1 MOL      0.020228
    141 H60        -7.3390   -2.8420   -1.3350 h1        1 MOL      0.049938
    142 H61        -4.6080   -2.9900   -2.6770 hc        1 MOL      0.044964
    143 H62        -5.9200   -3.9520   -3.0510 hc        1 MOL      0.044964
    144 H63        -5.2720   -1.7230   -4.6420 hc        1 MOL      0.065070
    145 H64        -6.9990   -1.9970   -4.2270 hc        1 MOL      0.065070
    146 H65        -5.0620   -0.2710   -2.7810 h1        1 MOL      0.046679
    147 H66        -6.6510    0.0910   -3.4100 h1        1 MOL      0.046679
    148 N13        -4.5800   -2.1130    0.1010 n         1 MOL     -0.293484
    149 C50        -3.6750   -2.3790    1.2140 c3        1 MOL     -0.103428
    150 C51        -4.2640   -1.9140    2.5670 c         1 MOL      0.503040
    151 O21        -4.1120   -2.6600    3.5150 o         1 MOL     -0.579438
    152 C52        -2.3110   -1.7210    0.9100 c3        1 MOL      0.044903
    153 C53        -1.6950   -2.1150   -0.4730 c3        1 MOL     -0.138782
    154 C54        -0.4220   -1.2240   -0.5730 c         1 MOL      0.615854
    155 O22         0.6880   -1.5480   -0.2210 o         1 MOL     -0.708969
    156 O23        -0.4940   -0.0940   -1.1360 o         1 MOL     -0.708969
    157 H67        -4.4040   -1.2890   -0.4530 hn        1 MOL      0.333082
    158 H68        -3.5980   -3.4680    1.2460 h1        1 MOL      0.104389
    159 H69        -1.7130   -2.0380    1.7660 hc        1 MOL      0.107102
    160 H70        -2.4880   -0.6520    0.9080 hc        1 MOL      0.107102
    161 H71        -2.4020   -1.9670   -1.2930 hc        1 MOL      0.022203
    162 H72        -1.3200   -3.1330   -0.4260 hc        1 MOL      0.022203
    163 N14        -5.0050   -0.8050    2.6520 n         1 MOL     -0.009631
    164 C55        -5.8760   -0.3370    3.7040 c3        1 MOL     -0.221714
    165 H73        -5.3230    0.3340    4.3620 h1        1 MOL      0.075327
    166 H74        -6.7200    0.1980    3.2670 h1        1 MOL      0.075327
    167 H75        -6.2430   -1.1880    4.2790 h1        1 MOL      0.075327
    168 H76        -5.0170   -0.2590    1.8000 hn        1 MOL      0.092167
    169 Ca1         2.1930    0.0870   -1.3570 Ca        1 MOL      1.760524
    170 O24         1.1870    2.4160   -2.1750 oh        1 MOL     -0.880701
    171 H77         1.2860    3.2030   -1.6450 ho        1 MOL      0.416922
    172 H78         0.3940    2.5660   -2.6850 ho        1 MOL      0.416922
    173 O25         1.4540    0.0540   -3.9720 oh        1 MOL     -0.880701
    174 H79         2.0990   -0.5050   -4.4050 ho        1 MOL      0.416922
    175 H80         0.7490    0.1540   -4.6150 ho        1 MOL      0.416922
@<TRIPOS>BOND
     1    1    2 1   
     2    1    4 1   
     3    1    5 1   
     4    1    6 1   
     5    2    3 2   
     6    2    7 1   
     7    7    8 1   
     8    7   15 1   
     9    8    9 1   
    10    8   11 1   
    11    8   16 1   
    12    9   10 2   
    13    9   19 1   
    14   11   12 1   
    15   11   17 1   
    16   11   18 1   
    17   12   13 1   
    18   12   14 1   
    19   19   20 1   
    20   19   24 1   
    21   20   21 1   
    22   20   23 1   
    23   20   25 1   
    24   21   22 2   
    25   21   29 1   
    26   23   26 1   
    27   23   27 1   
    28   23   28 1   
    29   29   30 1   
    30   29   37 1   
    31   30   31 1   
    32   30   33 1   
    33   30   38 1   
    34   31   32 2   
    35   31   41 1   
    36   33   34 1   
    37   33   39 1   
    38   33   40 1   
    39   34   35 1   
    40   34   36 1   
    41   41   42 1   
    42   41   45 1   
    43   42   43 1   
    44   42   46 1   
    45   42   47 1   
    46   43   44 2   
    47   43   48 1   
    48   48   49 1   
    49   48   56 1   
    50   49   50 1   
    51   49   52 1   
    52   49   57 1   
    53   50   51 2   
    54   50   62 1   
    55   52   53 1   
    56   52   58 1   
    57   52   59 1   
    58   53   54 1   
    59   53   55 2   
    60   54   60 1   
    61   54   61 1   
    62   62   63 1   
    63   62   66 1   
    64   63   64 1   
    65   63   67 1   
    66   63   68 1   
    67   64   65 2   
    68   64   69 1   
    69   69   70 1   
    70   69   76 1   
    71   70   71 1   
    72   70   73 1   
    73   70   77 1   
    74   71   72 2   
    75   71   83 1   
    76   73   74 1   
    77   73   75 1   
    78   73   78 1   
    79   74   80 1   
    80   74   81 1   
    81   74   82 1   
    82   75   79 1   
    83   83   84 1   
    84   83   91 1   
    85   84   85 1   
    86   84   87 1   
    87   84   92 1   
    88   85   86 2   
    89   85  102 1   
    90   87   88 1   
    91   87   89 1   
    92   87   93 1   
    93   88   90 1   
    94   88   94 1   
    95   88   95 1   
    96   89   96 1   
    97   89   97 1   
    98   89   98 1   
    99   90   99 1   
   100   90  100 1   
   101   90  101 1   
   102  102  103 1   
   103  102  110 1   
   104  103  104 1   
   105  103  106 1   
   106  103  111 1   
   107  104  105 2   
   108  104  114 1   
   109  106  107 1   
   110  106  112 1   
   111  106  113 1   
   112  107  108 1   
   113  107  109 1   
   114  114  115 1   
   115  114  125 1   
   116  115  116 1   
   117  115  118 1   
   118  115  126 1   
   119  116  117 2   
   120  116  134 1   
   121  118  119 1   
   122  118  127 1   
   123  118  128 1   
   124  119  120 ar  
   125  119  121 ar  
   126  120  122 ar  
   127  120  129 1   
   128  121  123 ar  
   129  121  130 1   
   130  122  124 ar  
   131  122  131 1   
   132  123  124 ar  
   133  123  132 1   
   134  124  133 1   
   135  134  135 1   
   136  134  140 1   
   137  135  136 1   
   138  135  138 1   
   139  135  141 1   
   140  136  137 2   
   141  136  148 1   
   142  138  139 1   
   143  138  142 1   
   144  138  143 1   
   145  139  140 1   
   146  139  144 1   
   147  139  145 1   
   148  140  146 1   
   149  140  147 1   
   150  148  149 1   
   151  148  157 1   
   152  149  150 1   
   153  149  152 1   
   154  149  158 1   
   155  150  151 2   
   156  150  163 1   
   157  152  153 1   
   158  152  159 1   
   159  152  160 1   
   160  153  154 1   
   161  153  161 1   
   162  153  162 1   
   163  154  155 1   
   164  154  156 1   
   165  163  164 1   
   166  163  168 1   
   167  164  165 1   
   168  164  166 1   
   169  164  167 1   
   170  170  171 1   
   171  170  172 1   
   172  173  174 1   
   173  173  175 1   
@<TRIPOS>SUBSTRUCTURE
     1 MOL         1 TEMP              0 ****  ****    0 ROOT
