@<TRIPOS>MOLECULE
MOL
  189   185     1     0     0
SMALL
resp


@<TRIPOS>ATOM
      1 C1         -1.0450    2.8360    5.7760 c3        1 MOL     -0.327679
      2 C2         -1.1680    2.3590    4.3260 c         1 MOL      0.702806
      3 O1         -0.2590    2.5700    3.4920 o         1 MOL     -0.623890
      4 H1         -0.0220    3.1590    5.9660 hc        1 MOL      0.083861
      5 H2         -1.7260    3.6710    5.9440 hc        1 MOL      0.083861
      6 H3         -1.2990    2.0190    6.4520 hc        1 MOL      0.083861
      7 N1         -2.3120    1.7130    3.9980 n         1 MOL     -0.573761
      8 C3         -2.6660    1.4480    2.5640 c3        1 MOL      0.098387
      9 C4         -3.0130    2.7660    1.8660 c         1 MOL      0.440794
     10 O2         -4.1190    3.3230    2.0490 o         1 MOL     -0.513053
     11 C5         -3.8360    0.5280    2.5670 c3        1 MOL     -0.285981
     12 C6         -4.4020    0.2890    1.2510 c         1 MOL      0.741367
     13 O3         -3.7070    0.3760    0.2010 o         1 MOL     -0.625441
     14 O4         -5.5090   -0.2700    1.1870 o         1 MOL     -0.625441
     15 H4         -2.8320    1.2320    4.7210 hn        1 MOL      0.333221
     16 H5         -1.8260    1.0070    2.0330 h1        1 MOL      0.022210
     17 H6         -4.6430    0.8890    3.2000 hc        1 MOL      0.077784
     18 H7         -3.3690   -0.3830    2.9430 hc        1 MOL      0.077784
     19 N2         -2.0050    3.4270    1.2120 n         1 MOL     -0.193473
     20 C7         -2.0640    4.8230    0.6760 c3        1 MOL     -0.178343
     21 C8         -2.8840    5.0690   -0.5290 c         1 MOL      0.554423
     22 O5         -3.4650    6.1180   -0.6750 o         1 MOL     -0.563713
     23 C9         -0.6550    5.3860    0.4440 c3        1 MOL     -0.069286
     24 C10        -0.5480    6.8220    0.8920 c3        1 MOL      0.142743
     25 C11         0.9420    7.2430    0.9010 c3        1 MOL     -0.041997
     26 C12         1.1980    8.7470    1.1590 c3        1 MOL      0.001366
     27 N3          0.5790    9.2310    2.4330 n4        1 MOL     -0.315771
     28 H8         -1.1790    2.8710    1.0630 hn        1 MOL      0.301897
     29 H9         -2.5250    5.3910    1.4820 h1        1 MOL      0.095196
     30 H10        -0.2790    5.2720   -0.5710 hc        1 MOL      0.038395
     31 H11         0.0990    4.7900    0.9570 hc        1 MOL      0.038395
     32 H12        -0.9380    6.8660    1.9150 hc        1 MOL     -0.017242
     33 H13        -1.1810    7.4700    0.2880 hc        1 MOL     -0.017242
     34 H14         1.4220    7.0440   -0.0500 hc        1 MOL      0.047190
     35 H15         1.4320    6.6400    1.6670 hc        1 MOL      0.047190
     36 H16         0.8110    9.3580    0.3410 hx        1 MOL      0.086516
     37 H17         2.2650    8.9560    1.1970 hx        1 MOL      0.086516
     38 H18         0.8490    8.7020    3.2460 hn        1 MOL      0.312853
     39 H19         0.9310   10.1450    2.6640 hn        1 MOL      0.312853
     40 H20        -0.4170    9.3520    2.3670 hn        1 MOL      0.312853
     41 N4         -2.9790    4.0330   -1.3740 n         1 MOL     -0.324604
     42 C13        -3.8820    4.0890   -2.5980 c3        1 MOL     -0.009977
     43 C14        -5.3070    3.5040   -2.4600 c         1 MOL      0.463151
     44 O6         -6.1450    4.0000   -3.1830 o         1 MOL     -0.570510
     45 C15        -3.2140    3.5040   -3.8000 c3        1 MOL     -0.193824
     46 C16        -2.7110    2.0360   -3.6720 c         1 MOL      0.726400
     47 O7         -2.1280    1.6130   -4.7020 o         1 MOL     -0.671227
     48 O8         -2.8380    1.3520   -2.6310 o         1 MOL     -0.671227
     49 H21        -2.5420    3.1440   -1.1920 hn        1 MOL      0.180399
     50 H22        -3.9790    5.1500   -2.8350 h1        1 MOL      0.094970
     51 H23        -2.4090    4.1690   -4.1060 hc        1 MOL      0.064968
     52 H24        -3.8550    3.4870   -4.6790 hc        1 MOL      0.064968
     53 N5         -5.5120    2.5390   -1.6180 n         1 MOL     -0.030666
     54 C17        -6.7470    1.8120   -1.2800 c3        1 MOL     -0.086093
     55 C18        -7.0660    0.4850   -1.9170 c         1 MOL      0.631875
     56 O9         -7.9230    0.4090   -2.8050 o         1 MOL     -0.576491
     57 H25        -4.6670    2.2290   -1.1560 hn        1 MOL      0.041121
     58 H26        -7.5360    2.5160   -1.5240 h1        1 MOL      0.054369
     59 H27        -6.8620    1.8060   -0.1960 h1        1 MOL      0.054369
     60 N6         -6.4440   -0.6010   -1.4630 n         1 MOL     -0.409916
     61 C19        -6.5980   -1.9720   -1.9730 c3        1 MOL      0.050821
     62 C20        -6.6350   -3.0270   -0.8290 c         1 MOL      0.371349
     63 O10        -6.7000   -4.2680   -1.0170 o         1 MOL     -0.528189
     64 C21        -5.6340   -2.2630   -3.0580 c3        1 MOL     -0.175029
     65 C22        -4.1700   -1.9940   -2.6170 c         1 MOL      0.640065
     66 O11        -3.8490   -2.3080   -1.4220 o         1 MOL     -0.626096
     67 O12        -3.4010   -1.5700   -3.4690 o         1 MOL     -0.626096
     68 H28        -5.7850   -0.4790   -0.7060 hn        1 MOL      0.145997
     69 H29        -7.6220   -1.9770   -2.3650 h1        1 MOL      0.090216
     70 H30        -5.8930   -1.6260   -3.9050 hc        1 MOL      0.074011
     71 H31        -5.6960   -3.2880   -3.4180 hc        1 MOL      0.074011
     72 N7         -6.6320   -2.6060    0.4390 n         1 MOL     -0.202679
     73 C23        -6.5240   -3.5220    1.5480 c3        1 MOL     -0.139527
     74 C24        -5.1870   -4.1810    1.7560 c         1 MOL      0.576205
     75 O13        -5.2080   -5.1760    2.4860 o         1 MOL     -0.602845
     76 H32        -6.5510   -1.6030    0.5520 hn        1 MOL      0.201803
     77 H33        -7.3090   -4.2820    1.5160 h1        1 MOL      0.088501
     78 H34        -6.6550   -2.9030    2.4430 h1        1 MOL      0.088501
     79 N8         -4.1610   -3.8110    1.0710 n         1 MOL     -0.300856
     80 C25        -2.8770   -4.5220    1.0470 c3        1 MOL     -0.137010
     81 C26        -1.7590   -3.5260    1.2610 c         1 MOL      0.675346
     82 O14        -1.7810   -2.3910    0.7630 o         1 MOL     -0.652927
     83 C27        -2.7320   -5.3450   -0.2570 c3        1 MOL      0.517006
     84 C28        -3.5050   -6.6520   -0.0770 c3        1 MOL     -0.608970
     85 O15        -3.3090   -4.7130   -1.3920 oh        1 MOL     -0.627401
     86 H35        -4.2560   -3.0450    0.4260 hn        1 MOL      0.203928
     87 H36        -2.7830   -5.1870    1.9070 h1        1 MOL      0.074948
     88 H37        -1.6480   -5.4450   -0.3270 h1        1 MOL     -0.081441
     89 H38        -3.5330   -3.8030   -1.1680 ho        1 MOL      0.407729
     90 H39        -3.2020   -7.3810   -0.8320 hc        1 MOL      0.162580
     91 H40        -3.3070   -7.0510    0.9170 hc        1 MOL      0.162580
     92 H41        -4.5660   -6.4830   -0.2580 hc        1 MOL      0.162580
     93 N9         -0.6690   -3.9360    1.8420 n         1 MOL     -0.551530
     94 C29         0.5230   -3.0820    2.0590 c3        1 MOL     -0.059601
     95 C30         1.6630   -3.6320    1.2490 c         1 MOL      0.710780
     96 O16         2.0860   -4.7450    1.3880 o         1 MOL     -0.589798
     97 C31         0.9570   -2.9300    3.6090 c3        1 MOL      0.028335
     98 C32        -0.0990   -2.0050    4.2250 c3        1 MOL      0.064006
     99 C33         2.3740   -2.2890    3.8570 c3        1 MOL     -0.152297
    100 C34        -0.0470   -1.8890    5.7540 c3        1 MOL     -0.288876
    101 H42        -0.7000   -4.9040    2.1330 hn        1 MOL      0.307926
    102 H43         0.3950   -2.0600    1.7110 h1        1 MOL      0.121325
    103 H44         1.0600   -3.9070    4.0830 hc        1 MOL      0.038038
    104 H45        -1.0960   -2.3410    3.9720 hc        1 MOL      0.035180
    105 H46         0.1130   -1.0310    3.7950 hc        1 MOL      0.035180
    106 H47         2.6760   -2.3870    4.8990 hc        1 MOL      0.035885
    107 H48         3.1280   -2.8950    3.3550 hc        1 MOL      0.035885
    108 H49         2.4540   -1.2410    3.5790 hc        1 MOL      0.035885
    109 H50         0.7610   -1.2420    6.0910 hc        1 MOL      0.067302
    110 H51        -0.9860   -1.4950    6.1480 hc        1 MOL      0.067302
    111 H52         0.1320   -2.9010    6.1170 hc        1 MOL      0.067302
    112 N10         2.2090   -2.8000    0.3260 n         1 MOL     -0.332682
    113 C35         3.4130   -2.9670   -0.4510 c3        1 MOL     -0.026025
    114 C36         4.6440   -2.5670    0.2790 c         1 MOL      0.375693
    115 O17         4.6590   -1.8690    1.2980 o         1 MOL     -0.291375
    116 C37         3.4100   -2.2080   -1.8210 c3        1 MOL      0.145494
    117 C38         2.1890   -2.5730   -2.6950 c3        1 MOL     -0.326374
    118 O18         3.2580   -0.8470   -1.5250 oh        1 MOL     -0.461391
    119 H53         1.7790   -1.8840    0.2730 hn        1 MOL      0.161670
    120 H54         3.5190   -4.0280   -0.7070 h1        1 MOL      0.082790
    121 H55         4.3060   -2.3590   -2.4230 h1        1 MOL      0.054363
    122 H56         2.4220   -0.7360   -1.0690 ho        1 MOL      0.343388
    123 H57         1.2930   -2.1030   -2.3150 hc        1 MOL      0.101377
    124 H58         2.2770   -2.2050   -3.7190 hc        1 MOL      0.101377
    125 H59         2.1010   -3.6570   -2.7380 hc        1 MOL      0.101377
    126 N11         5.8090   -2.8260   -0.3400 n         1 MOL     -0.391732
    127 C39         7.1380   -2.2890   -0.0070 c3        1 MOL      0.061251
    128 C40         7.1300   -0.7690    0.0300 c         1 MOL      0.249286
    129 O19         7.6830   -0.1730    0.9990 o         1 MOL     -0.480426
    130 C41         8.1840   -2.6110   -1.1740 c3        1 MOL      0.096639
    131 C42         8.6700   -4.0810   -1.1140 c3        1 MOL     -0.467527
    132 O20         7.6030   -2.4970   -2.4300 oh        1 MOL     -0.616356
    133 H60         5.7610   -3.4870   -1.1050 hn        1 MOL      0.298132
    134 H61         7.5220   -2.6030    0.9530 h1        1 MOL      0.134335
    135 H62         9.0480   -1.9630   -1.0600 h1        1 MOL      0.079985
    136 H63         8.3710   -2.4380   -3.0110 ho        1 MOL      0.432852
    137 H64         7.8670   -4.7950   -1.2810 hc        1 MOL      0.142438
    138 H65         9.5570   -4.1790   -1.7460 hc        1 MOL      0.142438
    139 H66         8.9740   -4.2840   -0.0790 hc        1 MOL      0.142438
    140 N12         6.3920   -0.2020   -0.9550 n         1 MOL     -0.083834
    141 C43         6.1520    1.2330   -1.1710 c3        1 MOL     -0.248676
    142 C44         5.2880    1.9130   -0.0720 c         1 MOL      0.617753
    143 O21         5.2020    3.1070    0.0640 o         1 MOL     -0.590364
    144 C45         5.7860    1.4450   -2.6020 c3        1 MOL     -0.056335
    145 C46         6.7400    0.7960   -3.6280 c3        1 MOL     -0.211509
    146 C47         8.1690    1.3720   -3.5070 c3        1 MOL      0.031189
    147 C48         8.9990    0.8970   -4.6420 c3        1 MOL     -0.068957
    148 N13        10.4230    1.4030   -4.7570 n4        1 MOL     -0.224241
    149 H67         5.9910   -0.8520   -1.6060 hn        1 MOL      0.318998
    150 H68         7.1190    1.7130   -1.0110 h1        1 MOL      0.111751
    151 H69         5.6850    2.5000   -2.8330 hc        1 MOL      0.081870
    152 H70         4.7980    1.0300   -2.7330 hc        1 MOL      0.081870
    153 H71         6.3800    1.0730   -4.6150 hc        1 MOL      0.073088
    154 H72         6.8760   -0.2710   -3.4750 hc        1 MOL      0.073088
    155 H73         8.5870    1.1550   -2.5260 hc        1 MOL      0.051217
    156 H74         8.2220    2.4500   -3.4100 hc        1 MOL      0.051217
    157 H75         8.5960    1.3370   -5.5460 hx        1 MOL      0.094778
    158 H76         8.8580   -0.1780   -4.7680 hx        1 MOL      0.094778
    159 H77        10.5070    2.3980   -4.6320 hn        1 MOL      0.268489
    160 H78        10.9770    0.8390   -4.1430 hn        1 MOL      0.268489
    161 H79        10.8510    1.0530   -5.5990 hn        1 MOL      0.268489
    162 N14         4.7900    1.0590    0.7880 n         1 MOL     -0.024209
    163 C49         4.0210    1.3400    1.9760 c3        1 MOL     -0.283743
    164 C50         4.6830    0.8540    3.2730 c         1 MOL      0.569637
    165 O22         4.5060    1.4270    4.2890 o         1 MOL     -0.543520
    166 C51         2.5920    0.9100    1.7890 c3        1 MOL      0.162117
    167 C52         1.7310    1.6200    0.7440 c3        1 MOL     -0.249182
    168 C53         0.5680    0.7840    0.1790 c         1 MOL      0.777014
    169 O23         0.6500   -0.4280   -0.1260 o         1 MOL     -0.757563
    170 O24        -0.4510    1.3690   -0.2330 o         1 MOL     -0.757563
    171 H80         4.8550    0.0860    0.5400 hn        1 MOL     -0.219182
    172 H81         3.9780    2.4250    2.0960 h1        1 MOL      0.138979
    173 H82         2.0590    1.0220    2.7320 hc        1 MOL      0.030106
    174 H83         2.6570   -0.1460    1.5240 hc        1 MOL      0.030106
    175 H84         2.4450    1.8660   -0.0350 hc        1 MOL      0.065068
    176 H85         1.3410    2.5470    1.1650 hc        1 MOL      0.065068
    177 N15         5.6420   -0.1010    3.1700 n         1 MOL     -0.201092
    178 C54         6.4340   -0.6060    4.3480 c3        1 MOL     -0.273398
    179 H86         7.1810    0.1380    4.6280 h1        1 MOL      0.109327
    180 H87         5.7640   -0.7820    5.1900 h1        1 MOL      0.109327
    181 H88         6.9330   -1.5370    4.0790 h1        1 MOL      0.109327
    182 H89         5.5800   -0.6850    2.3470 hn        1 MOL      0.194784
    183 Ca1        -1.8170   -0.6690   -1.2970 Ca        1 MOL      1.725771
    184 O25        -0.9510   -3.1850   -2.3550 oh        1 MOL     -0.781510
    185 H90        -1.3550   -4.0290   -2.1600 ho        1 MOL      0.369462
    186 H91        -0.9780   -3.1180   -3.3110 ho        1 MOL      0.369462
    187 O26        -0.2490   -0.0750   -3.4260 oh        1 MOL     -0.781510
    188 H92        -0.7770    0.5560   -3.9150 ho        1 MOL      0.369462
    189 H93         0.6460    0.2420   -3.5270 ho        1 MOL      0.369462
@<TRIPOS>BOND
     1    1    2 1   
     2    1    4 1   
     3    1    5 1   
     4    1    6 1   
     5    2    3 2   
     6    2    7 1   
     7    7    8 1   
     8    7   15 1   
     9    8    9 1   
    10    8   11 1   
    11    8   16 1   
    12    9   10 2   
    13    9   19 1   
    14   11   12 1   
    15   11   17 1   
    16   11   18 1   
    17   12   13 1   
    18   12   14 1   
    19   19   20 1   
    20   19   28 1   
    21   20   21 1   
    22   20   23 1   
    23   20   29 1   
    24   21   22 2   
    25   21   41 1   
    26   23   24 1   
    27   23   30 1   
    28   23   31 1   
    29   24   25 1   
    30   24   32 1   
    31   24   33 1   
    32   25   26 1   
    33   25   34 1   
    34   25   35 1   
    35   26   27 1   
    36   26   36 1   
    37   26   37 1   
    38   27   38 1   
    39   27   39 1   
    40   27   40 1   
    41   41   42 1   
    42   41   49 1   
    43   42   43 1   
    44   42   45 1   
    45   42   50 1   
    46   43   44 2   
    47   43   53 1   
    48   45   46 1   
    49   45   51 1   
    50   45   52 1   
    51   46   47 1   
    52   46   48 1   
    53   53   54 1   
    54   53   57 1   
    55   54   55 1   
    56   54   58 1   
    57   54   59 1   
    58   55   56 2   
    59   55   60 1   
    60   60   61 1   
    61   60   68 1   
    62   61   62 1   
    63   61   64 1   
    64   61   69 1   
    65   62   63 2   
    66   62   72 1   
    67   64   65 1   
    68   64   70 1   
    69   64   71 1   
    70   65   66 1   
    71   65   67 1   
    72   72   73 1   
    73   72   76 1   
    74   73   74 1   
    75   73   77 1   
    76   73   78 1   
    77   74   75 2   
    78   74   79 1   
    79   79   80 1   
    80   79   86 1   
    81   80   81 1   
    82   80   83 1   
    83   80   87 1   
    84   81   82 2   
    85   81   93 1   
    86   83   84 1   
    87   83   85 1   
    88   83   88 1   
    89   84   90 1   
    90   84   91 1   
    91   84   92 1   
    92   85   89 1   
    93   93   94 1   
    94   93  101 1   
    95   94   95 1   
    96   94   97 1   
    97   94  102 1   
    98   95   96 2   
    99   95  112 1   
   100   97   98 1   
   101   97   99 1   
   102   97  103 1   
   103   98  100 1   
   104   98  104 1   
   105   98  105 1   
   106   99  106 1   
   107   99  107 1   
   108   99  108 1   
   109  100  109 1   
   110  100  110 1   
   111  100  111 1   
   112  112  113 1   
   113  112  119 1   
   114  113  114 1   
   115  113  116 1   
   116  113  120 1   
   117  114  115 2   
   118  114  126 1   
   119  116  117 1   
   120  116  118 1   
   121  116  121 1   
   122  117  123 1   
   123  117  124 1   
   124  117  125 1   
   125  118  122 1   
   126  126  127 1   
   127  126  133 1   
   128  127  128 1   
   129  127  130 1   
   130  127  134 1   
   131  128  129 2   
   132  128  140 1   
   133  130  131 1   
   134  130  132 1   
   135  130  135 1   
   136  131  137 1   
   137  131  138 1   
   138  131  139 1   
   139  132  136 1   
   140  140  141 1   
   141  140  149 1   
   142  141  142 1   
   143  141  144 1   
   144  141  150 1   
   145  142  143 2   
   146  142  162 1   
   147  144  145 1   
   148  144  151 1   
   149  144  152 1   
   150  145  146 1   
   151  145  153 1   
   152  145  154 1   
   153  146  147 1   
   154  146  155 1   
   155  146  156 1   
   156  147  148 1   
   157  147  157 1   
   158  147  158 1   
   159  148  159 1   
   160  148  160 1   
   161  148  161 1   
   162  162  163 1   
   163  162  171 1   
   164  163  164 1   
   165  163  166 1   
   166  163  172 1   
   167  164  165 2   
   168  164  177 1   
   169  166  167 1   
   170  166  173 1   
   171  166  174 1   
   172  167  168 1   
   173  167  175 1   
   174  167  176 1   
   175  168  169 1   
   176  168  170 1   
   177  177  178 1   
   178  177  182 1   
   179  178  179 1   
   180  178  180 1   
   181  178  181 1   
   182  184  185 1   
   183  184  186 1   
   184  187  188 1   
   185  187  189 1   
@<TRIPOS>SUBSTRUCTURE
     1 MOL         1 TEMP              0 ****  ****    0 ROOT
