@<TRIPOS>MOLECULE
MOL
  175   173     1     0     0
SMALL
resp


@<TRIPOS>ATOM
      1 C1          0.4810    3.7990    5.7680 c3        1 MOL     -0.418194
      2 C2          0.0010    3.9860    4.3060 c         1 MOL      0.691594
      3 O1          0.7980    4.0690    3.4060 o         1 MOL     -0.529624
      4 H1          0.6220    2.7380    5.9710 hc        1 MOL      0.107961
      5 H2          1.4250    4.3240    5.9120 hc        1 MOL      0.107961
      6 H3         -0.2670    4.2030    6.4510 hc        1 MOL      0.107961
      7 N1         -1.2750    3.8150    4.0110 n         1 MOL     -0.620740
      8 C3         -1.8540    3.6250    2.7010 c3        1 MOL      0.166726
      9 C4         -1.6560    4.7830    1.7640 c         1 MOL      0.586599
     10 O2         -1.6600    5.9620    2.1210 o         1 MOL     -0.563766
     11 C5         -3.3750    3.3570    2.8810 c3        1 MOL     -0.289078
     12 C6         -4.0730    2.9420    1.6120 c         1 MOL      0.583354
     13 O3         -5.2640    3.2770    1.4400 o         1 MOL     -0.580649
     14 O4         -3.4410    2.2890    0.6890 o         1 MOL     -0.580649
     15 H4         -1.9080    3.5780    4.7530 hn        1 MOL      0.308078
     16 H5         -1.3580    2.7740    2.2200 h1        1 MOL      0.029139
     17 H6         -3.8360    4.2360    3.3380 hc        1 MOL      0.079400
     18 H7         -3.4930    2.6040    3.6610 hc        1 MOL      0.079400
     19 N2         -1.5780    4.4140    0.4360 n         1 MOL     -0.486820
     20 C7         -1.5330    5.4260   -0.6550 c3        1 MOL      0.314457
     21 C8         -2.6940    5.1530   -1.6950 c         1 MOL      0.443202
     22 O5         -2.9600    6.0250   -2.5460 o         1 MOL     -0.581501
     23 C9         -0.1630    5.3340   -1.2490 c3        1 MOL     -0.240336
     24 H8         -1.5340    3.4310    0.2320 hn        1 MOL      0.225907
     25 H9         -1.7070    6.4490   -0.3110 h1        1 MOL      0.008566
     26 H10         0.0570    4.2750   -1.4090 hc        1 MOL      0.058020
     27 H11        -0.0960    5.7980   -2.2310 hc        1 MOL      0.058020
     28 H12         0.5680    5.8420   -0.6250 hc        1 MOL      0.058020
     29 N3         -3.4600    4.0250   -1.6060 n         1 MOL     -0.398233
     30 C10        -4.2930    3.6760   -2.8090 c3        1 MOL      0.123881
     31 C11        -5.5410    2.8460   -2.5000 c         1 MOL      0.260421
     32 O6         -6.3540    2.5370   -3.3410 o         1 MOL     -0.523003
     33 C12        -3.4870    2.8160   -3.7840 c3        1 MOL     -0.065267
     34 C13        -2.7940    1.6490   -3.0770 c         1 MOL      0.671099
     35 O7         -3.3710    1.0790   -2.1410 o         1 MOL     -0.689789
     36 O8         -1.6440    1.3690   -3.3770 o         1 MOL     -0.689789
     37 H13        -3.2100    3.3690   -0.8870 hn        1 MOL      0.301559
     38 H14        -4.6160    4.5200   -3.4190 h1        1 MOL      0.085211
     39 H15        -2.6770    3.3870   -4.2430 hc        1 MOL      0.004088
     40 H16        -4.1520    2.5070   -4.5960 hc        1 MOL      0.004088
     41 N4         -5.7270    2.4630   -1.2260 n         1 MOL      0.103894
     42 C14        -6.9150    1.8370   -0.7100 c3        1 MOL     -0.353050
     43 C15        -7.2110    0.3950   -1.1390 c         1 MOL      0.482695
     44 O9         -8.3510   -0.0950   -1.0290 o         1 MOL     -0.615155
     45 H17        -4.9470    2.6930   -0.6350 hn        1 MOL     -0.051294
     46 H18        -7.8360    2.3080   -1.0640 h1        1 MOL      0.131205
     47 H19        -6.7660    1.7090    0.3540 h1        1 MOL      0.131205
     48 N5         -6.2600   -0.3240   -1.6580 n         1 MOL     -0.117581
     49 C16        -6.5590   -1.6490   -2.1850 c3        1 MOL     -0.108726
     50 C17        -6.7430   -2.6720   -1.0050 c         1 MOL      0.525827
     51 O10        -7.2850   -3.7470   -1.2270 o         1 MOL     -0.553536
     52 C18        -5.4090   -2.1160   -2.9970 c3        1 MOL     -0.193232
     53 C19        -4.0230   -2.0810   -2.5330 c         1 MOL      0.477531
     54 N6         -3.1210   -2.2320   -3.4400 n         1 MOL     -0.567484
     55 O11        -3.7390   -1.8590   -1.3310 o         1 MOL     -0.473498
     56 H20        -5.3450    0.1070   -1.6590 hn        1 MOL      0.219147
     57 H21        -7.4590   -1.7520   -2.7900 h1        1 MOL      0.129887
     58 H22        -5.3990   -1.5950   -3.9490 hc        1 MOL      0.072028
     59 H23        -5.5920   -3.1630   -3.2360 hc        1 MOL      0.072028
     60 H24        -3.3000   -2.5250   -4.3950 hn        1 MOL      0.316371
     61 H25        -2.1290   -2.1780   -3.2550 hn        1 MOL      0.316371
     62 N7         -6.5010   -2.2430    0.2470 n         1 MOL     -0.229678
     63 C20        -6.5830   -3.1400    1.3700 c3        1 MOL     -0.148356
     64 C21        -5.3150   -3.9820    1.6310 c         1 MOL      0.563542
     65 O12        -5.3650   -4.8900    2.4290 o         1 MOL     -0.580819
     66 H26        -6.1710   -1.2930    0.3090 hn        1 MOL      0.229563
     67 H27        -7.4940   -3.7250    1.4060 h1        1 MOL      0.080867
     68 H28        -6.6160   -2.4270    2.1980 h1        1 MOL      0.080867
     69 N8         -4.0610   -3.6880    1.1460 n         1 MOL     -0.191328
     70 C22        -2.8140   -4.4750    1.3570 c3        1 MOL     -0.230803
     71 C23        -1.6510   -3.5250    1.4820 c         1 MOL      0.513092
     72 O13        -1.6850   -2.5230    0.7430 o         1 MOL     -0.563191
     73 C24        -2.5220   -5.4120    0.1980 c3        1 MOL      0.463310
     74 C25        -3.4860   -6.5420    0.2050 c3        1 MOL     -0.570014
     75 O14        -2.5600   -4.8310   -1.0830 oh        1 MOL     -0.557050
     76 H29        -4.0080   -2.8430    0.5950 hn        1 MOL      0.107980
     77 H30        -2.8050   -5.0100    2.3140 h1        1 MOL      0.114389
     78 H31        -1.4760   -5.7010    0.2750 h1        1 MOL     -0.009630
     79 H32        -2.3000   -3.9130   -0.9250 ho        1 MOL      0.347545
     80 H33        -3.2690   -7.2060   -0.6250 hc        1 MOL      0.148493
     81 H34        -3.3980   -7.1140    1.1280 hc        1 MOL      0.148493
     82 H35        -4.4850   -6.1730   -0.0100 hc        1 MOL      0.148493
     83 N9         -0.5830   -3.8490    2.2270 n         1 MOL     -0.397024
     84 C26         0.6530   -3.1370    2.1930 c3        1 MOL     -0.009223
     85 C27         1.3710   -3.5340    0.8760 c         1 MOL      0.495170
     86 O15         1.6940   -4.7050    0.5590 o         1 MOL     -0.576173
     87 C28         1.4210   -3.3860    3.4830 c3        1 MOL     -0.004016
     88 C29         0.6860   -2.4870    4.5650 c3        1 MOL      0.283631
     89 C30         2.9260   -2.8500    3.2770 c3        1 MOL     -0.345995
     90 C31         1.2970   -2.7120    5.9310 c3        1 MOL     -0.076607
     91 H36        -0.5720   -4.7770    2.6130 hn        1 MOL      0.259771
     92 H37         0.5100   -2.0580    2.0650 h1        1 MOL      0.043512
     93 H38         1.4100   -4.4470    3.7250 hc        1 MOL      0.049505
     94 H39        -0.3730   -2.7600    4.6190 hc        1 MOL     -0.086478
     95 H40         0.6940   -1.4350    4.2870 hc        1 MOL     -0.086478
     96 H41         3.0170   -1.9800    2.6320 hc        1 MOL      0.078027
     97 H42         3.3520   -2.7760    4.2810 hc        1 MOL      0.078027
     98 H43         3.5120   -3.6570    2.8560 hc        1 MOL      0.078027
     99 H44         1.1940   -3.7900    6.0690 hc        1 MOL     -0.000053
    100 H45         2.3630   -2.4780    5.9950 hc        1 MOL     -0.000053
    101 H46         0.8140   -2.1420    6.7190 hc        1 MOL     -0.000053
    102 N10         1.6260   -2.4060    0.1180 n         1 MOL     -0.235175
    103 C32         2.5290   -2.4050   -1.1190 c3        1 MOL      0.137670
    104 C33         3.8850   -1.8910   -0.7190 c         1 MOL      0.356137
    105 O16         4.0250   -1.2210    0.3250 o         1 MOL     -0.327679
    106 C34         1.8440   -1.6580   -2.3220 c3        1 MOL     -0.411480
    107 C35         0.3820   -1.8880   -2.5000 c         1 MOL      0.846926
    108 O17        -0.4360   -1.3540   -1.7690 o         1 MOL     -0.723888
    109 O18         0.0110   -2.7570   -3.3440 o         1 MOL     -0.723888
    110 H47         1.2000   -1.5080    0.2930 hn        1 MOL      0.268091
    111 H48         2.6760   -3.4600   -1.3730 h1        1 MOL      0.061162
    112 H49         2.3880   -1.9630   -3.2220 hc        1 MOL      0.087930
    113 H50         2.0020   -0.5970   -2.1170 hc        1 MOL      0.087930
    114 N11         4.8810   -2.1670   -1.5320 n         1 MOL     -0.594297
    115 C36         6.2750   -1.8150   -1.3210 c3        1 MOL      0.339509
    116 C37         6.6450   -0.3870   -0.9060 c         1 MOL      0.351976
    117 O19         7.3030   -0.3200    0.1070 o         1 MOL     -0.516606
    118 C38         7.0600   -2.2810   -2.5650 c3        1 MOL     -0.237669
    119 C39         8.3730   -1.6320   -2.7840 ca        1 MOL      0.065076
    120 C40         9.3390   -1.8530   -1.7230 ca        1 MOL     -0.177697
    121 C41         8.6110   -0.6960   -3.8130 ca        1 MOL     -0.177697
    122 C42        10.5410   -1.1850   -1.7910 ca        1 MOL     -0.105874
    123 C43         9.9170   -0.1350   -3.8930 ca        1 MOL     -0.105874
    124 C44        10.8470   -0.3870   -2.9100 ca        1 MOL     -0.105207
    125 H51         4.6790   -2.7790   -2.3080 hn        1 MOL      0.327089
    126 H52         6.6990   -2.4050   -0.5050 h1        1 MOL      0.030849
    127 H53         6.4370   -2.1320   -3.4490 hc        1 MOL      0.071771
    128 H54         7.2900   -3.3460   -2.4640 hc        1 MOL      0.071771
    129 H55         9.1550   -2.6070   -0.9700 ha        1 MOL      0.140976
    130 H56         7.8670   -0.3360   -4.5040 ha        1 MOL      0.140976
    131 H57        11.2990   -1.4600   -1.0710 ha        1 MOL      0.110507
    132 H58        10.1690    0.6270   -4.6260 ha        1 MOL      0.110507
    133 H59        11.7950    0.1090   -3.0800 ha        1 MOL      0.090741
    134 N12         6.1070    0.7270   -1.4660 n         1 MOL      0.112615
    135 C45         6.4990    2.0810   -0.9500 c3        1 MOL      0.000067
    136 C46         5.8920    2.2890    0.4310 c         1 MOL      0.245671
    137 O20         6.4250    3.1950    1.1180 o         1 MOL     -0.518129
    138 C47         6.0200    3.0360   -2.0700 c3        1 MOL      0.002993
    139 C48         5.8110    2.1690   -3.2720 c3        1 MOL      0.017561
    140 C49         5.5420    0.7430   -2.7450 c3        1 MOL     -0.211443
    141 H60         7.5780    2.0550   -0.8400 h1        1 MOL      0.076218
    142 H61         5.0700    3.4930   -1.7590 hc        1 MOL      0.025519
    143 H62         6.7870    3.7700   -2.3120 hc        1 MOL      0.025519
    144 H63         4.9690    2.6050   -3.8260 hc        1 MOL      0.007932
    145 H64         6.7280    2.1280   -3.8480 hc        1 MOL      0.007932
    146 H65         4.4570    0.6480   -2.6650 h1        1 MOL      0.071512
    147 H66         5.9370    0.0060   -3.4430 h1        1 MOL      0.071512
    148 N13         4.8570    1.5680    0.8430 n         1 MOL     -0.069470
    149 C50         4.1470    1.8090    2.1240 c3        1 MOL      0.067649
    150 C51         4.7510    0.9870    3.2270 c         1 MOL      0.402173
    151 O21         4.7700    1.4350    4.3700 o         1 MOL     -0.550070
    152 C52         2.6530    1.4880    2.0080 c3        1 MOL     -0.026953
    153 C53         2.0220    1.9420    0.6880 c3        1 MOL     -0.171992
    154 C54         0.7190    1.2760    0.3900 c         1 MOL      0.633188
    155 O22         0.5880    0.1170    0.8780 o         1 MOL     -0.640594
    156 O23        -0.1230    1.8020   -0.4270 o         1 MOL     -0.640594
    157 H67         4.3660    0.9340    0.2420 hn        1 MOL      0.114949
    158 H68         4.2150    2.8390    2.4780 h1        1 MOL      0.059927
    159 H69         2.1500    1.9620    2.8530 hc        1 MOL      0.032138
    160 H70         2.6120    0.4020    2.0930 hc        1 MOL      0.032138
    161 H71         2.6550    1.6450   -0.1450 hc        1 MOL      0.062587
    162 H72         1.8510    3.0180    0.7050 hc        1 MOL      0.062587
    163 N14         5.3130   -0.2130    2.8860 n         1 MOL     -0.100884
    164 C55         6.3300   -0.8580    3.7480 c3        1 MOL     -0.202078
    165 H73         5.9930   -1.8600    4.0170 h1        1 MOL      0.081023
    166 H74         7.2740   -0.9270    3.2080 h1        1 MOL      0.081023
    167 H75         6.4690   -0.2660    4.6520 h1        1 MOL      0.081023
    168 H76         5.1830   -0.5480    1.9420 hn        1 MOL      0.114744
    169 Ca1        -1.9910   -0.0820   -0.1530 Ca        1 MOL      1.628660
    170 O24        -4.3660   -0.0930    0.9470 oh        1 MOL     -0.830341
    171 H77        -4.9240   -0.0390    1.7160 ho        1 MOL      0.404570
    172 H78        -4.2800    0.8090    0.6390 ho        1 MOL      0.404570
    173 O25        -1.4970    0.1450    2.5310 oh        1 MOL     -0.830341
    174 H79        -0.5520    0.0210    2.4390 ho        1 MOL      0.404570
    175 H80        -1.6280    0.3240    3.4580 ho        1 MOL      0.404570
@<TRIPOS>BOND
     1    1    2 1   
     2    1    4 1   
     3    1    5 1   
     4    1    6 1   
     5    2    3 2   
     6    2    7 1   
     7    7    8 1   
     8    7   15 1   
     9    8    9 1   
    10    8   11 1   
    11    8   16 1   
    12    9   10 2   
    13    9   19 1   
    14   11   12 1   
    15   11   17 1   
    16   11   18 1   
    17   12   13 1   
    18   12   14 1   
    19   19   20 1   
    20   19   24 1   
    21   20   21 1   
    22   20   23 1   
    23   20   25 1   
    24   21   22 2   
    25   21   29 1   
    26   23   26 1   
    27   23   27 1   
    28   23   28 1   
    29   29   30 1   
    30   29   37 1   
    31   30   31 1   
    32   30   33 1   
    33   30   38 1   
    34   31   32 2   
    35   31   41 1   
    36   33   34 1   
    37   33   39 1   
    38   33   40 1   
    39   34   35 1   
    40   34   36 1   
    41   41   42 1   
    42   41   45 1   
    43   42   43 1   
    44   42   46 1   
    45   42   47 1   
    46   43   44 2   
    47   43   48 1   
    48   48   49 1   
    49   48   56 1   
    50   49   50 1   
    51   49   52 1   
    52   49   57 1   
    53   50   51 2   
    54   50   62 1   
    55   52   53 1   
    56   52   58 1   
    57   52   59 1   
    58   53   54 1   
    59   53   55 2   
    60   54   60 1   
    61   54   61 1   
    62   62   63 1   
    63   62   66 1   
    64   63   64 1   
    65   63   67 1   
    66   63   68 1   
    67   64   65 2   
    68   64   69 1   
    69   69   70 1   
    70   69   76 1   
    71   70   71 1   
    72   70   73 1   
    73   70   77 1   
    74   71   72 2   
    75   71   83 1   
    76   73   74 1   
    77   73   75 1   
    78   73   78 1   
    79   74   80 1   
    80   74   81 1   
    81   74   82 1   
    82   75   79 1   
    83   83   84 1   
    84   83   91 1   
    85   84   85 1   
    86   84   87 1   
    87   84   92 1   
    88   85   86 2   
    89   85  102 1   
    90   87   88 1   
    91   87   89 1   
    92   87   93 1   
    93   88   90 1   
    94   88   94 1   
    95   88   95 1   
    96   89   96 1   
    97   89   97 1   
    98   89   98 1   
    99   90   99 1   
   100   90  100 1   
   101   90  101 1   
   102  102  103 1   
   103  102  110 1   
   104  103  104 1   
   105  103  106 1   
   106  103  111 1   
   107  104  105 2   
   108  104  114 1   
   109  106  107 1   
   110  106  112 1   
   111  106  113 1   
   112  107  108 1   
   113  107  109 1   
   114  114  115 1   
   115  114  125 1   
   116  115  116 1   
   117  115  118 1   
   118  115  126 1   
   119  116  117 2   
   120  116  134 1   
   121  118  119 1   
   122  118  127 1   
   123  118  128 1   
   124  119  120 ar  
   125  119  121 ar  
   126  120  122 ar  
   127  120  129 1   
   128  121  123 ar  
   129  121  130 1   
   130  122  124 ar  
   131  122  131 1   
   132  123  124 ar  
   133  123  132 1   
   134  124  133 1   
   135  134  135 1   
   136  134  140 1   
   137  135  136 1   
   138  135  138 1   
   139  135  141 1   
   140  136  137 2   
   141  136  148 1   
   142  138  139 1   
   143  138  142 1   
   144  138  143 1   
   145  139  140 1   
   146  139  144 1   
   147  139  145 1   
   148  140  146 1   
   149  140  147 1   
   150  148  149 1   
   151  148  157 1   
   152  149  150 1   
   153  149  152 1   
   154  149  158 1   
   155  150  151 2   
   156  150  163 1   
   157  152  153 1   
   158  152  159 1   
   159  152  160 1   
   160  153  154 1   
   161  153  161 1   
   162  153  162 1   
   163  154  155 1   
   164  154  156 1   
   165  163  164 1   
   166  163  168 1   
   167  164  165 1   
   168  164  166 1   
   169  164  167 1   
   170  170  171 1   
   171  170  172 1   
   172  173  174 1   
   173  173  175 1   
@<TRIPOS>SUBSTRUCTURE
     1 MOL         1 TEMP              0 ****  ****    0 ROOT
