@<TRIPOS>MOLECULE
MOL
  189   185     1     0     0
SMALL
resp


@<TRIPOS>ATOM
      1 C1         -0.4240    2.7770   -5.0080 c3        1 MOL     -0.403280
      2 C2          0.3210    2.6860   -3.7030 c         1 MOL      0.687455
      3 O1         -0.1570    3.2960   -2.7170 o         1 MOL     -0.637210
      4 H1          0.2860    2.9270   -5.8220 hc        1 MOL      0.102741
      5 H2         -0.9770    1.8530   -5.1760 hc        1 MOL      0.102741
      6 H3         -1.1180    3.6160   -4.9730 hc        1 MOL      0.102741
      7 N1          1.5040    2.0880   -3.6420 n         1 MOL     -0.562846
      8 C3          2.1340    1.7140   -2.4070 c3        1 MOL      0.329826
      9 C4          2.7850    3.0110   -1.7840 c         1 MOL      0.309617
     10 O2          3.9780    3.2940   -1.9970 o         1 MOL     -0.491486
     11 C5          3.2320    0.6370   -2.6870 c3        1 MOL     -0.390874
     12 C6          4.0020    0.1750   -1.4470 c         1 MOL      0.779894
     13 O3          3.4530    0.5850   -0.3800 o         1 MOL     -0.647675
     14 O4          5.0680   -0.4600   -1.4760 o         1 MOL     -0.647675
     15 H4          1.8960    1.6430   -4.4620 hn        1 MOL      0.306804
     16 H5          1.3380    1.2970   -1.7950 h1        1 MOL     -0.016768
     17 H6          3.9420    1.0320   -3.4110 hc        1 MOL      0.086680
     18 H7          2.7680   -0.2680   -3.0920 hc        1 MOL      0.086680
     19 N2          1.9840    3.7760   -1.0190 n         1 MOL     -0.205871
     20 C7          2.3630    5.1010   -0.4450 c3        1 MOL     -0.100621
     21 C8          3.3780    4.9810    0.7340 c         1 MOL      0.631279
     22 O5          3.8160    5.9950    1.1490 o         1 MOL     -0.578349
     23 C9          0.9730    5.8580   -0.1770 c3        1 MOL      0.026548
     24 C10         0.5510    6.6490   -1.4530 c3        1 MOL      0.000915
     25 C11        -0.7090    7.4120   -1.1210 c3        1 MOL     -0.104674
     26 C12        -1.3970    8.2230   -2.3070 c3        1 MOL     -0.065548
     27 N3         -1.7450    7.3170   -3.4930 n4        1 MOL     -0.352831
     28 H8          1.0350    3.4290   -0.9830 hn        1 MOL      0.307324
     29 H9          2.9460    5.7210   -1.1220 h1        1 MOL      0.076763
     30 H10         1.1100    6.5170    0.6750 hc        1 MOL      0.013555
     31 H11         0.2320    5.0970    0.0760 hc        1 MOL      0.013555
     32 H12         0.4430    6.0310   -2.3420 hc        1 MOL      0.024708
     33 H13         1.3150    7.4070   -1.6400 hc        1 MOL      0.024708
     34 H14        -0.4120    8.0370   -0.2700 hc        1 MOL      0.072718
     35 H15        -1.5100    6.7720   -0.7420 hc        1 MOL      0.072718
     36 H16        -0.6530    8.9400   -2.6510 hx        1 MOL      0.112885
     37 H17        -2.2510    8.7790   -1.9020 hx        1 MOL      0.112885
     38 H18        -0.9190    6.9820   -3.9640 hn        1 MOL      0.333305
     39 H19        -2.1330    6.4660   -3.1010 hn        1 MOL      0.333305
     40 H20        -2.3500    7.8160   -4.1300 hn        1 MOL      0.333305
     41 N4          3.7090    3.7950    1.2890 n         1 MOL     -0.367344
     42 C13         4.5850    3.6180    2.4190 c3        1 MOL      0.002334
     43 C14         5.8210    2.7630    1.9810 c         1 MOL      0.360729
     44 O6          6.7390    2.5360    2.8160 o         1 MOL     -0.483777
     45 C15         3.8990    3.0050    3.6590 c3        1 MOL     -0.184652
     46 C16         2.7290    2.1000    3.4800 c         1 MOL      0.843700
     47 O7          2.9840    1.1770    2.6760 o         1 MOL     -0.745370
     48 O8          1.6790    2.1960    4.1550 o         1 MOL     -0.745370
     49 H21         3.2820    2.9590    0.9230 hn        1 MOL      0.125000
     50 H22         4.9070    4.6110    2.7560 h1        1 MOL      0.122836
     51 H23         3.5520    3.8050    4.3170 hc        1 MOL      0.038962
     52 H24         4.6810    2.5250    4.2430 hc        1 MOL      0.038962
     53 N5          5.9350    2.3020    0.6850 n         1 MOL     -0.136446
     54 C17         7.0690    1.6160    0.1350 c3        1 MOL     -0.347778
     55 C18         7.4980    0.3410    0.7480 c         1 MOL      0.567435
     56 O9          8.6740    0.0900    0.9520 o         1 MOL     -0.574720
     57 H25         5.1070    2.2560    0.0900 hn        1 MOL      0.168913
     58 H26         7.8100    2.3990    0.3210 h1        1 MOL      0.143751
     59 H27         6.8370    1.4160   -0.9180 h1        1 MOL      0.143751
     60 N6          6.5320   -0.4590    1.2750 n         1 MOL     -0.218310
     61 C19         6.8120   -1.8330    1.8620 c3        1 MOL     -0.068016
     62 C20         6.7440   -2.8880    0.7810 c         1 MOL      0.371173
     63 O10         7.0810   -4.0810    1.1190 o         1 MOL     -0.534452
     64 C21         5.7150   -2.1430    2.9250 c3        1 MOL     -0.214242
     65 C22         4.3100   -2.0190    2.4130 c         1 MOL      0.833894
     66 O11         3.4670   -1.5890    3.2180 o         1 MOL     -0.751151
     67 O12         3.9520   -2.3070    1.2380 o         1 MOL     -0.751151
     68 H28         5.5740   -0.1610    1.1260 hn        1 MOL      0.211143
     69 H29         7.7660   -1.8840    2.3930 h1        1 MOL      0.155232
     70 H30         6.0280   -1.4250    3.6730 hc        1 MOL      0.073578
     71 H31         5.9170   -3.1300    3.3510 hc        1 MOL      0.073578
     72 N7          6.4690   -2.6420   -0.5740 n         1 MOL     -0.203303
     73 C23         6.5400   -3.6640   -1.5620 c3        1 MOL     -0.250098
     74 C24         5.1600   -4.3840   -1.8490 c         1 MOL      0.566234
     75 O13         5.1800   -5.3750   -2.5650 o         1 MOL     -0.572041
     76 H32         5.9840   -1.7680   -0.7570 hn        1 MOL      0.215890
     77 H33         7.2790   -4.4110   -1.2490 h1        1 MOL      0.125359
     78 H34         6.7950   -3.1580   -2.4920 h1        1 MOL      0.125359
     79 N8          4.0410   -3.9120   -1.2720 n         1 MOL     -0.228462
     80 C25         2.6680   -4.5820   -1.2830 c3        1 MOL     -0.416164
     81 C26         1.5150   -3.5780   -1.2790 c         1 MOL      0.903626
     82 O14         1.5100   -2.5390   -0.5920 o         1 MOL     -0.690674
     83 C27         2.5020   -5.5930   -0.2060 c3        1 MOL      0.539140
     84 C28         3.3520   -6.8310   -0.2150 c3        1 MOL     -0.398015
     85 O15         2.7130   -4.8780    1.0530 oh        1 MOL     -0.662204
     86 H35         4.1280   -3.0190   -0.8090 hn        1 MOL      0.195604
     87 H36         2.6150   -5.0320   -2.2750 h1        1 MOL      0.122574
     88 H37         1.4880   -5.9790   -0.2450 h1        1 MOL     -0.009504
     89 H38         3.3990   -4.2230    0.8890 ho        1 MOL      0.423136
     90 H39         4.3990   -6.5500   -0.2390 hc        1 MOL      0.108449
     91 H40         3.1660   -7.4370    0.6590 hc        1 MOL      0.108449
     92 H41         3.0880   -7.4410   -1.0880 hc        1 MOL      0.108449
     93 N9          0.3700   -3.9000   -2.0030 n         1 MOL     -0.750933
     94 C29        -0.7540   -2.9860   -2.2420 c3        1 MOL     -0.005767
     95 C30        -1.9810   -3.5290   -1.4890 c         1 MOL      0.674303
     96 O16        -2.4000   -4.7310   -1.6200 o         1 MOL     -0.596501
     97 C31        -1.0540   -2.8640   -3.7290 c3        1 MOL      0.176477
     98 C32         0.0700   -1.9240   -4.2990 c3        1 MOL      0.154947
     99 C33        -2.4460   -2.3970   -4.2240 c3        1 MOL     -0.288808
    100 C34         0.1340   -1.9900   -5.8640 c3        1 MOL     -0.230224
    101 H42         0.3730   -4.7920   -2.4890 hn        1 MOL      0.341646
    102 H43        -0.4970   -1.9990   -1.8610 h1        1 MOL      0.081854
    103 H44        -0.9050   -3.8460   -4.1760 hc        1 MOL      0.013170
    104 H45         1.0280   -2.3230   -3.9740 hc        1 MOL     -0.018025
    105 H46        -0.0320   -0.8740   -4.0060 hc        1 MOL     -0.018025
    106 H47        -3.2160   -2.8500   -3.5990 hc        1 MOL      0.056630
    107 H48        -2.5350   -1.3090   -4.1400 hc        1 MOL      0.056630
    108 H49        -2.4780   -2.6910   -5.2680 hc        1 MOL      0.056630
    109 H50         0.1070   -3.0310   -6.2090 hc        1 MOL      0.050567
    110 H51        -0.7340   -1.5450   -6.3510 hc        1 MOL      0.050567
    111 H52         1.0600   -1.5410   -6.2360 hc        1 MOL      0.050567
    112 N10        -2.6270   -2.7070   -0.6610 n         1 MOL     -0.418806
    113 C35        -3.8030   -3.0590    0.2350 c3        1 MOL      0.000269
    114 C36        -5.1430   -2.5160   -0.3270 c         1 MOL      0.377155
    115 O17        -5.1410   -1.5510   -1.0450 o         1 MOL     -0.356660
    116 C37        -3.6460   -2.5120    1.6610 c3        1 MOL      0.150998
    117 C38        -2.6770   -3.2740    2.5080 c3        1 MOL     -0.268837
    118 O18        -3.2080   -1.1580    1.5170 oh        1 MOL     -0.647629
    119 H53        -2.2520   -1.7800   -0.7440 hn        1 MOL      0.291025
    120 H54        -3.9090   -4.1420    0.1900 h1        1 MOL      0.096569
    121 H55        -4.6160   -2.4680    2.1710 h1        1 MOL      0.088785
    122 H56        -2.2670   -1.2850    1.4040 ho        1 MOL      0.484258
    123 H57        -1.6630   -3.1970    2.1150 hc        1 MOL      0.085189
    124 H58        -2.4530   -2.7380    3.4280 hc        1 MOL      0.085189
    125 H59        -3.0170   -4.2880    2.7150 hc        1 MOL      0.085189
    126 N11        -6.2650   -3.0780    0.0880 n         1 MOL     -0.253856
    127 C39        -7.6200   -2.5760   -0.0180 c3        1 MOL     -0.137128
    128 C40        -7.7440   -1.0680    0.3430 c         1 MOL      0.459535
    129 O19        -8.4770   -0.3040   -0.2320 o         1 MOL     -0.482734
    130 C41        -8.6800   -3.3620    0.8200 c3        1 MOL      0.442199
    131 C42        -8.9790   -4.7410    0.4540 c3        1 MOL     -0.467812
    132 O20        -8.2660   -3.3050    2.2200 oh        1 MOL     -0.679172
    133 H60        -6.1710   -3.9860    0.5340 hn        1 MOL      0.247639
    134 H61        -8.0390   -2.7350   -1.0140 h1        1 MOL      0.102895
    135 H62        -9.5780   -2.7600    0.7020 h1        1 MOL      0.003826
    136 H63        -9.0720   -3.4240    2.7150 ho        1 MOL      0.405289
    137 H64        -9.8930   -4.9700    0.9990 hc        1 MOL      0.130731
    138 H65        -9.1490   -4.6780   -0.6280 hc        1 MOL      0.130731
    139 H66        -8.1240   -5.3990    0.5980 hc        1 MOL      0.130731
    140 N12        -6.9170   -0.5870    1.2600 n         1 MOL     -0.352855
    141 C43        -6.7090    0.8370    1.5590 c3        1 MOL     -0.027145
    142 C44        -6.1340    1.6050    0.4540 c         1 MOL      0.610526
    143 O21        -6.8150    2.5280    0.0610 o         1 MOL     -0.568052
    144 C45        -5.8440    0.9470    2.8760 c3        1 MOL     -0.091285
    145 C46        -5.7490    2.2920    3.5260 c3        1 MOL     -0.031631
    146 C47        -4.7000    2.4000    4.6710 c3        1 MOL     -0.039480
    147 C48        -4.9440    1.4300    5.7670 c3        1 MOL     -0.144975
    148 N13        -6.2620    1.7040    6.4300 n4        1 MOL     -0.272597
    149 H67        -6.3950   -1.2100    1.8660 hn        1 MOL      0.210748
    150 H68        -7.5980    1.4240    1.7660 h1        1 MOL      0.082439
    151 H69        -4.8510    0.5610    2.6190 hc        1 MOL      0.072081
    152 H70        -6.1950    0.2010    3.5840 hc        1 MOL      0.072081
    153 H71        -6.7540    2.6290    3.7820 hc        1 MOL      0.014954
    154 H72        -5.4130    2.9570    2.7280 hc        1 MOL      0.014954
    155 H73        -4.7650    3.4330    5.0170 hc        1 MOL      0.084612
    156 H74        -3.7140    2.1740    4.2600 hc        1 MOL      0.084612
    157 H75        -4.1750    1.6280    6.5120 hx        1 MOL      0.139738
    158 H76        -4.9140    0.4540    5.2890 hx        1 MOL      0.139738
    159 H77        -7.0550    1.7110    5.7990 hn        1 MOL      0.303806
    160 H78        -6.4740    0.9970    7.1270 hn        1 MOL      0.303806
    161 H79        -6.2870    2.5910    6.9080 hn        1 MOL      0.303806
    162 N14        -4.9500    1.2130   -0.0340 n         1 MOL      0.044700
    163 C49        -4.1740    1.9740   -1.0800 c3        1 MOL     -0.262172
    164 C50        -4.7260    2.0110   -2.5080 c         1 MOL      0.542861
    165 O22        -4.5700    3.0010   -3.1870 o         1 MOL     -0.546969
    166 C51        -2.7130    1.4390   -1.1000 c3        1 MOL      0.118492
    167 C52        -1.9470    1.7430    0.1880 c3        1 MOL     -0.004686
    168 C53        -0.6750    0.8450    0.2670 c         1 MOL      0.683164
    169 O23         0.4780    1.3760    0.3880 o         1 MOL     -0.715023
    170 O24        -0.8830   -0.3790    0.5210 o         1 MOL     -0.715023
    171 H80        -4.4940    0.3800    0.3250 hn        1 MOL     -0.253592
    172 H81        -4.2770    2.9940   -0.7010 h1        1 MOL      0.097072
    173 H82        -2.2610    1.9480   -1.9520 hc        1 MOL     -0.022237
    174 H83        -2.7710    0.3610   -1.2680 hc        1 MOL     -0.022237
    175 H84        -2.6170    1.5590    1.0290 hc        1 MOL      0.018969
    176 H85        -1.6580    2.7810    0.3570 hc        1 MOL      0.018969
    177 N15        -5.4800    0.9680   -2.9450 n         1 MOL     -0.185220
    178 C54        -6.3580    1.0910   -4.0550 c3        1 MOL     -0.261449
    179 H86        -5.7840    1.3480   -4.9450 h1        1 MOL      0.102465
    180 H87        -6.8750    0.1440   -4.2160 h1        1 MOL      0.102465
    181 H88        -7.0890    1.8750   -3.8570 h1        1 MOL      0.102465
    182 H89        -5.5820    0.0990   -2.4530 hn        1 MOL      0.226715
    183 Ca1         1.7700   -0.5790    1.3980 Ca        1 MOL      1.758649
    184 O25         0.0720    0.1410    3.3930 oh        1 MOL     -0.862993
    185 H90         0.2240    0.8910    3.9670 ho        1 MOL      0.400627
    186 H91        -0.7080   -0.2800    3.7520 ho        1 MOL      0.400627
    187 O26         0.9740   -3.0200    2.1160 oh        1 MOL     -0.862993
    188 H92         0.4980   -3.6090    2.6980 ho        1 MOL      0.400627
    189 H93         1.7250   -3.5380    1.8150 ho        1 MOL      0.400627
@<TRIPOS>BOND
     1    1    2 1   
     2    1    4 1   
     3    1    5 1   
     4    1    6 1   
     5    2    3 2   
     6    2    7 1   
     7    7    8 1   
     8    7   15 1   
     9    8    9 1   
    10    8   11 1   
    11    8   16 1   
    12    9   10 2   
    13    9   19 1   
    14   11   12 1   
    15   11   17 1   
    16   11   18 1   
    17   12   13 1   
    18   12   14 1   
    19   19   20 1   
    20   19   28 1   
    21   20   21 1   
    22   20   23 1   
    23   20   29 1   
    24   21   22 2   
    25   21   41 1   
    26   23   24 1   
    27   23   30 1   
    28   23   31 1   
    29   24   25 1   
    30   24   32 1   
    31   24   33 1   
    32   25   26 1   
    33   25   34 1   
    34   25   35 1   
    35   26   27 1   
    36   26   36 1   
    37   26   37 1   
    38   27   38 1   
    39   27   39 1   
    40   27   40 1   
    41   41   42 1   
    42   41   49 1   
    43   42   43 1   
    44   42   45 1   
    45   42   50 1   
    46   43   44 2   
    47   43   53 1   
    48   45   46 1   
    49   45   51 1   
    50   45   52 1   
    51   46   47 1   
    52   46   48 1   
    53   53   54 1   
    54   53   57 1   
    55   54   55 1   
    56   54   58 1   
    57   54   59 1   
    58   55   56 2   
    59   55   60 1   
    60   60   61 1   
    61   60   68 1   
    62   61   62 1   
    63   61   64 1   
    64   61   69 1   
    65   62   63 2   
    66   62   72 1   
    67   64   65 1   
    68   64   70 1   
    69   64   71 1   
    70   65   66 1   
    71   65   67 1   
    72   72   73 1   
    73   72   76 1   
    74   73   74 1   
    75   73   77 1   
    76   73   78 1   
    77   74   75 2   
    78   74   79 1   
    79   79   80 1   
    80   79   86 1   
    81   80   81 1   
    82   80   83 1   
    83   80   87 1   
    84   81   82 2   
    85   81   93 1   
    86   83   84 1   
    87   83   85 1   
    88   83   88 1   
    89   84   90 1   
    90   84   91 1   
    91   84   92 1   
    92   85   89 1   
    93   93   94 1   
    94   93  101 1   
    95   94   95 1   
    96   94   97 1   
    97   94  102 1   
    98   95   96 2   
    99   95  112 1   
   100   97   98 1   
   101   97   99 1   
   102   97  103 1   
   103   98  100 1   
   104   98  104 1   
   105   98  105 1   
   106   99  106 1   
   107   99  107 1   
   108   99  108 1   
   109  100  109 1   
   110  100  110 1   
   111  100  111 1   
   112  112  113 1   
   113  112  119 1   
   114  113  114 1   
   115  113  116 1   
   116  113  120 1   
   117  114  115 2   
   118  114  126 1   
   119  116  117 1   
   120  116  118 1   
   121  116  121 1   
   122  117  123 1   
   123  117  124 1   
   124  117  125 1   
   125  118  122 1   
   126  126  127 1   
   127  126  133 1   
   128  127  128 1   
   129  127  130 1   
   130  127  134 1   
   131  128  129 2   
   132  128  140 1   
   133  130  131 1   
   134  130  132 1   
   135  130  135 1   
   136  131  137 1   
   137  131  138 1   
   138  131  139 1   
   139  132  136 1   
   140  140  141 1   
   141  140  149 1   
   142  141  142 1   
   143  141  144 1   
   144  141  150 1   
   145  142  143 2   
   146  142  162 1   
   147  144  145 1   
   148  144  151 1   
   149  144  152 1   
   150  145  146 1   
   151  145  153 1   
   152  145  154 1   
   153  146  147 1   
   154  146  155 1   
   155  146  156 1   
   156  147  148 1   
   157  147  157 1   
   158  147  158 1   
   159  148  159 1   
   160  148  160 1   
   161  148  161 1   
   162  162  163 1   
   163  162  171 1   
   164  163  164 1   
   165  163  166 1   
   166  163  172 1   
   167  164  165 2   
   168  164  177 1   
   169  166  167 1   
   170  166  173 1   
   171  166  174 1   
   172  167  168 1   
   173  167  175 1   
   174  167  176 1   
   175  168  169 1   
   176  168  170 1   
   177  177  178 1   
   178  177  182 1   
   179  178  179 1   
   180  178  180 1   
   181  178  181 1   
   182  184  185 1   
   183  184  186 1   
   184  187  188 1   
   185  187  189 1   
@<TRIPOS>SUBSTRUCTURE
     1 MOL         1 TEMP              0 ****  ****    0 ROOT
