@<TRIPOS>MOLECULE
MOL
  179   176     1     0     0
SMALL
resp


@<TRIPOS>ATOM
      1 C1          0.9880    3.8860    4.7920 c3        1 MOL     -0.197523
      2 C2          0.4470    3.4450    3.4860 c         1 MOL      0.735042
      3 O1          1.2240    3.2600    2.5490 o         1 MOL     -0.591506
      4 H1          0.8530    3.0930    5.5280 hc        1 MOL      0.037141
      5 H2          2.0510    4.1080    4.6890 hc        1 MOL      0.037141
      6 H3          0.4600    4.7810    5.1210 hc        1 MOL      0.037141
      7 N1         -0.8400    3.2740    3.3330 n         1 MOL     -0.735817
      8 C3         -1.5870    2.7450    2.1560 c3        1 MOL      0.444950
      9 C4         -2.1900    3.9880    1.3950 c         1 MOL      0.350710
     10 O2         -3.3730    4.2990    1.4950 o         1 MOL     -0.444086
     11 C5         -2.7060    1.7620    2.5980 c3        1 MOL     -0.071539
     12 C6         -3.3130    1.1250    1.3120 c         1 MOL      0.616870
     13 O3         -2.5930    1.1040    0.2680 o         1 MOL     -0.647033
     14 O4         -4.5110    0.8110    1.4100 o         1 MOL     -0.647033
     15 H4         -1.3900    3.6350    4.1030 hn        1 MOL      0.318082
     16 H5         -0.8170    2.2480    1.5750 h1        1 MOL     -0.049517
     17 H6         -3.4350    2.3220    3.1890 hc        1 MOL     -0.003486
     18 H7         -2.2090    0.9820    3.1840 hc        1 MOL     -0.003486
     19 N2         -1.2470    4.7740    0.7660 n         1 MOL     -0.285099
     20 C7         -1.5190    6.0680    0.1240 c3        1 MOL     -0.228052
     21 C8         -2.3010    5.9800   -1.2000 c         1 MOL      0.450921
     22 O5         -2.5960    6.9880   -1.8670 o         1 MOL     -0.542118
     23 C9         -0.1810    6.8550    0.0180 c3        1 MOL      0.047961
     24 C10         0.3930    7.3100    1.3460 c3        1 MOL      0.129466
     25 C11         1.7500    7.9370    1.0070 c3        1 MOL     -0.116176
     26 C12         2.5430    8.3070    2.3000 c3        1 MOL      0.054407
     27 N3          2.0700    9.6390    2.7820 n4        1 MOL     -0.474807
     28 H8         -0.3740    4.3130    0.5770 hn        1 MOL      0.301910
     29 H9         -2.1010    6.6930    0.7970 h1        1 MOL      0.143244
     30 H10        -0.2730    7.7260   -0.6370 hc        1 MOL      0.035172
     31 H11         0.5600    6.3570   -0.6060 hc        1 MOL      0.035172
     32 H12         0.4610    6.4400    1.9930 hc        1 MOL     -0.040557
     33 H13        -0.3130    8.0180    1.7800 hc        1 MOL     -0.040557
     34 H14         1.6040    8.8670    0.4600 hc        1 MOL      0.061068
     35 H15         2.3200    7.2160    0.4220 hc        1 MOL      0.061068
     36 H16         3.6220    8.3900    2.2120 hx        1 MOL      0.101408
     37 H17         2.3660    7.5410    3.0540 hx        1 MOL      0.101408
     38 H18         1.0740    9.7770    2.6870 hn        1 MOL      0.352140
     39 H19         2.3600    9.8210    3.7270 hn        1 MOL      0.352140
     40 H20         2.5080   10.3650    2.2420 hn        1 MOL      0.352140
     41 N4         -2.5430    4.7150   -1.6900 n         1 MOL     -0.179880
     42 C13        -3.3450    4.3590   -2.8830 c3        1 MOL      0.162235
     43 C14        -4.7670    3.8980   -2.4400 c         1 MOL      0.375937
     44 O6         -5.6790    4.0180   -3.1920 o         1 MOL     -0.507140
     45 C15        -2.6260    3.4200   -3.8070 c3        1 MOL     -0.367322
     46 C16        -2.1190    2.2210   -3.0870 c         1 MOL      0.789665
     47 O7         -2.6100    1.0850   -3.2720 o         1 MOL     -0.750237
     48 O8         -1.2050    2.3430   -2.2770 o         1 MOL     -0.750237
     49 H21        -2.1280    3.9320   -1.1830 hn        1 MOL      0.148830
     50 H22        -3.4340    5.2830   -3.4510 h1        1 MOL      0.060485
     51 H23        -1.7320    3.9530   -4.1200 hc        1 MOL      0.098673
     52 H24        -3.2260    2.9690   -4.6040 hc        1 MOL      0.098673
     53 N5         -4.9240    3.3890   -1.1810 n         1 MOL     -0.035440
     54 C17        -6.2160    2.9640   -0.6850 c3        1 MOL     -0.325963
     55 C18        -6.6190    1.5080   -0.9370 c         1 MOL      0.686186
     56 O9         -7.7710    1.1910   -0.7960 o         1 MOL     -0.605783
     57 H25        -4.0990    3.3340   -0.5970 hn        1 MOL      0.004161
     58 H26        -6.9910    3.6110   -1.1030 h1        1 MOL      0.138456
     59 H27        -6.2010    3.0920    0.3960 h1        1 MOL      0.138456
     60 N6         -5.6800    0.6320   -1.3450 n         1 MOL     -0.240012
     61 C19        -6.0860   -0.7790   -1.7090 c3        1 MOL     -0.325393
     62 C20        -6.0190   -1.9270   -0.6540 c         1 MOL      0.342880
     63 O10        -6.1820   -3.0740   -0.9130 o         1 MOL     -0.417915
     64 C21        -5.3500   -1.2040   -2.9880 c3        1 MOL     -0.082099
     65 C22        -3.9660   -1.7400   -2.7260 c         1 MOL      0.457871
     66 N7         -3.3920   -2.5480   -3.6540 n         1 MOL     -0.699397
     67 O11        -3.3320   -1.4140   -1.6780 o         1 MOL     -0.394574
     68 H28        -4.6970    0.8400   -1.2450 hn        1 MOL      0.161192
     69 H29        -7.1250   -0.6660   -2.0030 h1        1 MOL      0.218274
     70 H30        -5.3160   -0.3840   -3.6930 hc        1 MOL      0.085896
     71 H31        -6.0000   -1.8840   -3.5330 hc        1 MOL      0.085896
     72 H32        -3.8590   -2.7590   -4.5180 hn        1 MOL      0.346454
     73 H33        -2.4770   -2.9260   -3.4430 hn        1 MOL      0.346454
     74 N8         -5.8500   -1.5350    0.6080 n         1 MOL     -0.085880
     75 C23        -5.8870   -2.3490    1.7940 c3        1 MOL     -0.522256
     76 C24        -4.5620   -3.0080    2.2490 c         1 MOL      0.742790
     77 O12        -4.5970   -3.7590    3.2040 o         1 MOL     -0.574441
     78 H34        -5.6240   -0.5650    0.7540 hn        1 MOL      0.272696
     79 H35        -6.5380   -3.1830    1.5550 h1        1 MOL      0.193426
     80 H36        -6.1840   -1.7640    2.6610 h1        1 MOL      0.193426
     81 N9         -3.4740   -2.7790    1.4950 n         1 MOL     -0.502541
     82 C25        -2.2150   -3.5150    1.6910 c3        1 MOL      0.193988
     83 C26        -1.0450   -2.5630    1.5880 c         1 MOL      0.599499
     84 O13        -1.0160   -1.5480    0.9120 o         1 MOL     -0.652992
     85 C27        -2.0090   -4.6320    0.6470 c3        1 MOL      0.045861
     86 C28        -3.0220   -5.7560    0.8020 ca        1 MOL      0.053191
     87 C29        -4.2110   -5.5780    0.1040 ca        1 MOL     -0.159919
     88 C30        -2.7590   -6.9350    1.5180 ca        1 MOL     -0.159919
     89 C31        -5.1650   -6.6440   -0.0060 ca        1 MOL     -0.281344
     90 C32        -3.7740   -7.9440    1.5220 ca        1 MOL     -0.281344
     91 C33        -4.9370   -7.8180    0.7660 ca        1 MOL      0.350559
     92 O14        -5.9180   -8.7700    0.8290 oh        1 MOL     -0.462115
     93 H37        -3.5040   -2.2160    0.6520 hn        1 MOL      0.244061
     94 H38        -2.2390   -4.0190    2.6550 h1        1 MOL      0.015277
     95 H39        -1.0690   -5.1700    0.7180 hc        1 MOL     -0.011749
     96 H40        -2.1550   -4.2610   -0.3680 hc        1 MOL     -0.011749
     97 H41        -4.3520   -4.7830   -0.6180 ha        1 MOL      0.121838
     98 H42        -1.7860   -7.0830    1.9660 ha        1 MOL      0.121838
     99 H43        -6.0490   -6.4600   -0.6000 ha        1 MOL      0.153903
    100 H44        -3.7140   -8.7960    2.1840 ha        1 MOL      0.153903
    101 H45        -5.6690   -9.3920    1.5170 ho        1 MOL      0.333575
    102 N10         0.0640   -2.9530    2.2410 n         1 MOL     -0.655724
    103 C34         1.3720   -2.2360    2.1600 c3        1 MOL      0.083024
    104 C35         2.3390   -3.2800    1.5680 c         1 MOL      0.633345
    105 O15         2.6820   -4.2560    2.2370 o         1 MOL     -0.571278
    106 C36         1.9550   -1.6330    3.4930 c3        1 MOL      0.088220
    107 C37         0.8290   -0.8970    4.1980 c3        1 MOL      0.041556
    108 C38         3.2180   -0.8450    3.3010 c3        1 MOL     -0.189859
    109 C39         0.9780   -0.6650    5.7020 c3        1 MOL     -0.243290
    110 H46         0.0430   -3.8690    2.6800 hn        1 MOL      0.340253
    111 H47         1.3850   -1.4360    1.4260 h1        1 MOL      0.067001
    112 H48         2.2070   -2.4630    4.1590 hc        1 MOL      0.001177
    113 H49        -0.1530   -1.3830    4.1580 hc        1 MOL      0.046768
    114 H50         0.7830    0.0040    3.6020 hc        1 MOL      0.046768
    115 H51         3.6890   -1.0050    2.3320 hc        1 MOL      0.050192
    116 H52         3.1070    0.2390    3.2980 hc        1 MOL      0.050192
    117 H53         3.8430   -1.1120    4.1490 hc        1 MOL      0.050192
    118 H54         1.8290   -0.0260    5.9230 hc        1 MOL      0.056608
    119 H55         0.1030   -0.1100    6.0360 hc        1 MOL      0.056608
    120 H56         0.9980   -1.5460    6.3270 hc        1 MOL      0.056608
    121 N11         2.7550   -2.9940    0.2900 n         1 MOL     -0.480054
    122 C40         3.8990   -3.6240   -0.3610 c3        1 MOL     -0.005213
    123 C41         5.1900   -2.9430    0.1370 c         1 MOL      0.378380
    124 O16         5.1940   -1.8230    0.6670 o         1 MOL     -0.333295
    125 C42         3.7230   -3.5590   -1.8680 c3        1 MOL      0.192112
    126 O17         4.8050   -3.8970   -2.5730 oh        1 MOL     -0.581188
    127 H57         2.4080   -2.1900   -0.2150 hn        1 MOL      0.221308
    128 H58         3.8760   -4.6580   -0.0390 h1        1 MOL      0.072423
    129 H59         3.5340   -2.4960   -2.0010 h1        1 MOL      0.020568
    130 H60         2.9300   -4.2120   -2.2300 h1        1 MOL      0.020568
    131 H61         4.5850   -4.6660   -3.1010 ho        1 MOL      0.405110
    132 N12         6.3010   -3.7370   -0.0110 n         1 MOL     -0.368938
    133 C43         7.6870   -3.2820    0.2810 c3        1 MOL      0.141175
    134 C44         8.0890   -2.0990   -0.6170 c         1 MOL      0.419448
    135 O18         8.6990   -1.1020   -0.2230 o         1 MOL     -0.522141
    136 C45         8.6150   -4.5160    0.2340 c3        1 MOL     -0.317218
    137 H62         6.1850   -4.7210   -0.2200 hn        1 MOL      0.260661
    138 H63         7.5910   -2.8060    1.2600 h1        1 MOL      0.049656
    139 H64         8.3020   -5.2560    0.9580 hc        1 MOL      0.101902
    140 H65         8.7230   -4.8640   -0.7900 hc        1 MOL      0.101902
    141 H66         9.5980   -4.1710    0.5730 hc        1 MOL      0.101902
    142 N13         7.5020   -2.1790   -1.8100 n         1 MOL     -0.210700
    143 C46         7.6730   -1.2710   -2.9410 c3        1 MOL     -0.007580
    144 C47         7.1730    0.1890   -2.7450 c         1 MOL      0.460485
    145 O19         7.6200    1.1520   -3.3390 o         1 MOL     -0.523251
    146 C48         6.8640   -1.8510   -4.1140 c3        1 MOL     -0.273101
    147 H67         6.8560   -2.9450   -1.9830 hn        1 MOL      0.143009
    148 H68         8.7200   -1.2410   -3.2430 h1        1 MOL      0.095422
    149 H69         6.7990   -1.1610   -4.9600 hc        1 MOL      0.082270
    150 H70         7.3630   -2.6970   -4.5920 hc        1 MOL      0.082270
    151 H71         5.8120   -2.0030   -3.8740 hc        1 MOL      0.082270
    152 N14         6.1460    0.2950   -1.9060 n         1 MOL     -0.414406
    153 C49         5.6660    1.5560   -1.4060 c3        1 MOL      0.104882
    154 C50         6.2070    1.8730   -0.0130 c         1 MOL      0.446369
    155 O20         6.5440    3.0360    0.1990 o         1 MOL     -0.560230
    156 C51         4.1120    1.6650   -1.4030 c3        1 MOL     -0.437254
    157 C52         3.5270    0.4360   -0.7150 c3        1 MOL     -0.000018
    158 C53         1.9950    0.3120   -0.7140 c         1 MOL      0.771260
    159 O21         1.2080    1.3320   -0.5460 o         1 MOL     -0.715324
    160 O22         1.4860   -0.7980   -0.9330 o         1 MOL     -0.715324
    161 H72         5.8510   -0.5510   -1.4330 hn        1 MOL      0.451044
    162 H73         5.9170    2.4080   -2.0350 h1        1 MOL      0.103621
    163 H74         3.6490    1.6910   -2.4000 hc        1 MOL      0.153288
    164 H75         3.8540    2.5760   -0.8700 hc        1 MOL      0.153288
    165 H76         3.7120    0.4330    0.3630 hc        1 MOL     -0.038286
    166 H77         4.0320   -0.4660   -1.0530 hc        1 MOL     -0.038286
    167 N15         6.3670    0.9040    0.9220 n         1 MOL     -0.056574
    168 C54         7.0810    1.0080    2.1750 c3        1 MOL     -0.100624
    169 H78         6.8780    0.1260    2.7830 h1        1 MOL      0.055870
    170 H79         8.1510    1.0740    1.9790 h1        1 MOL      0.055870
    171 H80         6.7530    1.9000    2.7080 h1        1 MOL      0.055870
    172 H81         5.9160    0.0430    0.6420 hn        1 MOL      0.053683
    173 Ca1        -1.0570   -0.2100   -1.2670 Ca        1 MOL      1.689498
    174 O23        -0.5800   -2.5710   -2.5950 oh        1 MOL     -0.806955
    175 H82        -0.2020   -2.5020   -3.4710 ho        1 MOL      0.397499
    176 H83        -0.2510   -3.4110   -2.2540 ho        1 MOL      0.397499
    177 O24         0.6410   -0.1370   -3.5390 oh        1 MOL     -0.806955
    178 H84         1.2790    0.5390   -3.7520 ho        1 MOL      0.397499
    179 H85         0.5210   -0.6310   -4.3520 ho        1 MOL      0.397499
@<TRIPOS>BOND
     1    1    2 1   
     2    1    4 1   
     3    1    5 1   
     4    1    6 1   
     5    2    3 2   
     6    2    7 1   
     7    7    8 1   
     8    7   15 1   
     9    8    9 1   
    10    8   11 1   
    11    8   16 1   
    12    9   10 2   
    13    9   19 1   
    14   11   12 1   
    15   11   17 1   
    16   11   18 1   
    17   12   13 1   
    18   12   14 1   
    19   19   20 1   
    20   19   28 1   
    21   20   21 1   
    22   20   23 1   
    23   20   29 1   
    24   21   22 2   
    25   21   41 1   
    26   23   24 1   
    27   23   30 1   
    28   23   31 1   
    29   24   25 1   
    30   24   32 1   
    31   24   33 1   
    32   25   26 1   
    33   25   34 1   
    34   25   35 1   
    35   26   27 1   
    36   26   36 1   
    37   26   37 1   
    38   27   38 1   
    39   27   39 1   
    40   27   40 1   
    41   41   42 1   
    42   41   49 1   
    43   42   43 1   
    44   42   45 1   
    45   42   50 1   
    46   43   44 2   
    47   43   53 1   
    48   45   46 1   
    49   45   51 1   
    50   45   52 1   
    51   46   47 1   
    52   46   48 1   
    53   53   54 1   
    54   53   57 1   
    55   54   55 1   
    56   54   58 1   
    57   54   59 1   
    58   55   56 2   
    59   55   60 1   
    60   60   61 1   
    61   60   68 1   
    62   61   62 1   
    63   61   64 1   
    64   61   69 1   
    65   62   63 2   
    66   62   74 1   
    67   64   65 1   
    68   64   70 1   
    69   64   71 1   
    70   65   66 1   
    71   65   67 2   
    72   66   72 1   
    73   66   73 1   
    74   74   75 1   
    75   74   78 1   
    76   75   76 1   
    77   75   79 1   
    78   75   80 1   
    79   76   77 2   
    80   76   81 1   
    81   81   82 1   
    82   81   93 1   
    83   82   83 1   
    84   82   85 1   
    85   82   94 1   
    86   83   84 2   
    87   83  102 1   
    88   85   86 1   
    89   85   95 1   
    90   85   96 1   
    91   86   87 ar  
    92   86   88 ar  
    93   87   89 ar  
    94   87   97 1   
    95   88   90 ar  
    96   88   98 1   
    97   89   91 ar  
    98   89   99 1   
    99   90   91 ar  
   100   90  100 1   
   101   91   92 1   
   102   92  101 1   
   103  102  103 1   
   104  102  110 1   
   105  103  104 1   
   106  103  106 1   
   107  103  111 1   
   108  104  105 2   
   109  104  121 1   
   110  106  107 1   
   111  106  108 1   
   112  106  112 1   
   113  107  109 1   
   114  107  113 1   
   115  107  114 1   
   116  108  115 1   
   117  108  116 1   
   118  108  117 1   
   119  109  118 1   
   120  109  119 1   
   121  109  120 1   
   122  121  122 1   
   123  121  127 1   
   124  122  123 1   
   125  122  125 1   
   126  122  128 1   
   127  123  124 2   
   128  123  132 1   
   129  125  126 1   
   130  125  129 1   
   131  125  130 1   
   132  126  131 1   
   133  132  133 1   
   134  132  137 1   
   135  133  134 1   
   136  133  136 1   
   137  133  138 1   
   138  134  135 2   
   139  134  142 1   
   140  136  139 1   
   141  136  140 1   
   142  136  141 1   
   143  142  143 1   
   144  142  147 1   
   145  143  144 1   
   146  143  146 1   
   147  143  148 1   
   148  144  145 2   
   149  144  152 1   
   150  146  149 1   
   151  146  150 1   
   152  146  151 1   
   153  152  153 1   
   154  152  161 1   
   155  153  154 1   
   156  153  156 1   
   157  153  162 1   
   158  154  155 2   
   159  154  167 1   
   160  156  157 1   
   161  156  163 1   
   162  156  164 1   
   163  157  158 1   
   164  157  165 1   
   165  157  166 1   
   166  158  159 1   
   167  158  160 1   
   168  167  168 1   
   169  167  172 1   
   170  168  169 1   
   171  168  170 1   
   172  168  171 1   
   173  174  175 1   
   174  174  176 1   
   175  177  178 1   
   176  177  179 1   
@<TRIPOS>SUBSTRUCTURE
     1 MOL         1 TEMP              0 ****  ****    0 ROOT
