@<TRIPOS>MOLECULE
MOL
  175   173     1     0     0
SMALL
resp


@<TRIPOS>ATOM
      1 C1          0.1000    4.1230    5.4200 c3        1 MOL     -0.398853
      2 C2         -0.6170    4.1180    4.0760 c         1 MOL      0.743633
      3 O1          0.0410    4.5090    3.1360 o         1 MOL     -0.576266
      4 H1          1.0870    3.6740    5.3070 hc        1 MOL      0.091436
      5 H2          0.2070    5.1500    5.7710 hc        1 MOL      0.091436
      6 H3         -0.4780    3.5490    6.1440 hc        1 MOL      0.091436
      7 N1         -1.8350    3.7330    3.9070 n         1 MOL     -0.589382
      8 C3         -2.5420    3.5340    2.6280 c3        1 MOL      0.050300
      9 C4         -2.8910    4.7920    1.7710 c         1 MOL      0.670816
     10 O2         -3.3940    5.8000    2.3220 o         1 MOL     -0.575874
     11 C5         -3.7670    2.7580    2.8280 c3        1 MOL     -0.195699
     12 C6         -4.2590    1.9440    1.6010 c         1 MOL      0.650328
     13 O3         -5.4240    1.4870    1.5780 o         1 MOL     -0.675845
     14 O4         -3.5560    1.7230    0.6030 o         1 MOL     -0.675845
     15 H4         -2.2790    3.2740    4.6890 hn        1 MOL      0.310365
     16 H5         -1.8920    2.9180    2.0010 h1        1 MOL      0.100945
     17 H6         -4.5460    3.3690    3.2840 hc        1 MOL      0.043517
     18 H7         -3.6670    2.0130    3.6230 hc        1 MOL      0.043517
     19 N2         -2.6470    4.7000    0.4470 n         1 MOL     -0.664782
     20 C7         -3.1560    5.6290   -0.5410 c3        1 MOL      0.378761
     21 C8         -3.9530    5.0860   -1.7410 c         1 MOL      0.401071
     22 O5         -4.1890    5.8480   -2.7510 o         1 MOL     -0.562988
     23 C9         -1.8810    6.3800   -0.9170 c3        1 MOL     -0.133703
     24 H8         -2.2590    3.8300    0.1180 hn        1 MOL      0.342956
     25 H9         -3.7930    6.3800   -0.0830 h1        1 MOL     -0.012489
     26 H10        -1.0500    5.7550   -1.2340 hc        1 MOL      0.030397
     27 H11        -1.9860    7.0560   -1.7620 hc        1 MOL      0.030397
     28 H12        -1.5290    7.0130   -0.1050 hc        1 MOL      0.030397
     29 N3         -4.2960    3.7970   -1.7010 n         1 MOL     -0.529530
     30 C10        -4.8080    3.2240   -2.9610 c3        1 MOL      0.475440
     31 C11        -6.1220    2.4800   -2.6970 c         1 MOL      0.336376
     32 O6         -6.9640    2.3960   -3.5470 o         1 MOL     -0.556297
     33 C12        -3.8080    2.3830   -3.7880 c3        1 MOL     -0.376824
     34 C13        -3.1530    1.3960   -2.8100 c         1 MOL      0.885363
     35 O7         -3.7960    0.6100   -2.1200 o         1 MOL     -0.782991
     36 O8         -1.9210    1.4140   -2.6840 o         1 MOL     -0.782991
     37 H13        -4.1200    3.2350   -0.8830 hn        1 MOL      0.305981
     38 H14        -5.1200    4.0180   -3.6540 h1        1 MOL     -0.001044
     39 H15        -3.0500    3.0070   -4.2610 hc        1 MOL      0.080597
     40 H16        -4.4140    1.7940   -4.4720 hc        1 MOL      0.080597
     41 N4         -6.3450    1.9050   -1.5120 n         1 MOL     -0.265802
     42 C14        -7.5260    1.0900   -1.0920 c3        1 MOL     -0.147173
     43 C15        -7.3440   -0.4170   -1.2150 c         1 MOL      0.471736
     44 O9         -8.2000   -1.2450   -0.8400 o         1 MOL     -0.632153
     45 H17        -5.5840    1.8190   -0.8470 hn        1 MOL      0.155888
     46 H18        -8.4220    1.4770   -1.5730 h1        1 MOL      0.124660
     47 H19        -7.8030    1.2970   -0.0660 h1        1 MOL      0.124660
     48 N5         -6.2190   -0.9440   -1.7650 n         1 MOL     -0.263977
     49 C16        -6.0810   -2.3950   -2.1490 c3        1 MOL     -0.044414
     50 C17        -5.9130   -3.4020   -1.0220 c         1 MOL      0.480216
     51 O10        -5.6570   -4.5470   -1.3360 o         1 MOL     -0.515038
     52 C18        -4.8810   -2.5130   -3.2220 c3        1 MOL     -0.237388
     53 C19        -3.4980   -2.5710   -2.5870 c         1 MOL      0.672691
     54 N6         -2.5780   -3.0430   -3.3770 n         1 MOL     -0.617783
     55 O11        -3.1870   -2.2300   -1.4890 o         1 MOL     -0.681570
     56 H20        -5.4640   -0.3160   -1.9680 hn        1 MOL      0.278549
     57 H21        -7.0430   -2.6620   -2.5950 h1        1 MOL      0.123548
     58 H22        -4.7750   -1.8120   -4.0460 hc        1 MOL      0.070944
     59 H23        -5.0350   -3.5050   -3.6460 hc        1 MOL      0.070944
     60 H24        -2.8510   -3.2450   -4.3310 hn        1 MOL      0.319392
     61 H25        -1.6500   -2.8470   -3.0240 hn        1 MOL      0.319392
     62 N7         -6.1220   -3.0200    0.2390 n         1 MOL     -0.195639
     63 C20        -6.1490   -3.9170    1.3730 c3        1 MOL     -0.327910
     64 C21        -4.7550   -4.5360    1.8190 c         1 MOL      0.620628
     65 O12        -4.7240   -5.4940    2.4430 o         1 MOL     -0.553636
     66 H26        -6.4030   -2.0640    0.4010 hn        1 MOL      0.341268
     67 H27        -6.8470   -4.7320    1.1860 h1        1 MOL      0.115996
     68 H28        -6.4600   -3.2280    2.1510 h1        1 MOL      0.115996
     69 N8         -3.6800   -3.9530    1.2870 n         1 MOL     -0.002811
     70 C22        -2.3460   -4.4410    1.5150 c3        1 MOL     -0.374789
     71 C23        -1.3220   -3.3230    1.5620 c         1 MOL      0.627455
     72 O13        -1.4520   -2.3140    0.8710 o         1 MOL     -0.447401
     73 C24        -1.9460   -5.4550    0.5000 c3        1 MOL      0.563286
     74 C25        -2.7700   -6.7160    0.5550 c3        1 MOL     -0.510925
     75 O14        -2.2420   -4.9790   -0.7810 oh        1 MOL     -0.585943
     76 H29        -3.7820   -3.0510    0.8480 hn        1 MOL     -0.101861
     77 H30        -2.2600   -4.8890    2.4990 h1        1 MOL      0.086191
     78 H31        -0.8650   -5.5690    0.5890 h1        1 MOL     -0.024444
     79 H32        -2.5020   -4.0520   -0.7210 ho        1 MOL      0.351562
     80 H33        -2.1540   -7.4900    0.0970 hc        1 MOL      0.119289
     81 H34        -2.9060   -6.9660    1.6160 hc        1 MOL      0.119289
     82 H35        -3.7600   -6.5250    0.1520 hc        1 MOL      0.119289
     83 N9         -0.2370   -3.5900    2.3100 n         1 MOL     -0.484721
     84 C26         0.9360   -2.7330    2.2800 c3        1 MOL     -0.243489
     85 C27         1.6960   -3.0950    1.0140 c         1 MOL      0.581758
     86 O15         1.9990   -4.2510    0.7380 o         1 MOL     -0.582744
     87 C28         1.8500   -2.8150    3.5880 c3        1 MOL      0.268961
     88 C29         1.1730   -2.1680    4.8430 c3        1 MOL      0.096038
     89 C30         3.1970   -2.1430    3.4080 c3        1 MOL     -0.117382
     90 C31         1.9840   -2.1030    6.1540 c3        1 MOL     -0.156051
     91 H36        -0.2560   -4.4560    2.8340 hn        1 MOL      0.306134
     92 H37         0.4430   -1.7700    2.1740 h1        1 MOL      0.059749
     93 H38         2.1020   -3.8140    3.9400 hc        1 MOL     -0.026958
     94 H39         0.2760   -2.7650    5.0140 hc        1 MOL     -0.033781
     95 H40         0.8910   -1.1520    4.5450 hc        1 MOL     -0.033781
     96 H41         3.1140   -1.0770    3.1930 hc        1 MOL      0.017759
     97 H42         3.9260   -2.4760    4.1610 hc        1 MOL      0.017759
     98 H43         3.7030   -2.6650    2.5910 hc        1 MOL      0.017759
     99 H44         2.3110   -3.0820    6.5050 hc        1 MOL      0.027103
    100 H45         2.7620   -1.3480    6.0220 hc        1 MOL      0.027103
    101 H46         1.3210   -1.7720    6.9590 hc        1 MOL      0.027103
    102 N10         1.9860   -2.0880    0.2310 n         1 MOL     -0.123427
    103 C32         2.8820   -2.0280   -0.9940 c3        1 MOL     -0.012771
    104 C33         4.3160   -1.4490   -0.7680 c         1 MOL      0.349849
    105 O16         4.6340   -0.7900    0.2160 o         1 MOL     -0.345684
    106 C34         2.2210   -1.1980   -2.1360 c3        1 MOL     -0.147128
    107 C35         0.8100   -1.7120   -2.5430 c         1 MOL      0.644666
    108 O17        -0.1790   -1.2040   -1.9080 o         1 MOL     -0.650788
    109 O18         0.6130   -2.4020   -3.5560 o         1 MOL     -0.650788
    110 H47         1.7500   -1.1480    0.5500 hn        1 MOL     -0.002306
    111 H48         2.9170   -3.0550   -1.3670 h1        1 MOL      0.082890
    112 H49         2.9820   -1.1870   -2.9220 hc        1 MOL      0.066862
    113 H50         2.2030   -0.1690   -1.7670 hc        1 MOL      0.066862
    114 N11         5.2760   -1.5550   -1.7620 n         1 MOL     -0.535156
    115 C36         6.6780   -1.1300   -1.4850 c3        1 MOL      0.321530
    116 C37         6.7480    0.3580   -1.2090 c         1 MOL      0.311188
    117 O19         7.4230    0.7080   -0.2560 o         1 MOL     -0.484175
    118 C38         7.5260   -1.6010   -2.6480 c3        1 MOL     -0.341235
    119 C39         9.0270   -1.4100   -2.3480 ca        1 MOL      0.095606
    120 C40         9.7230   -2.2560   -1.4410 ca        1 MOL     -0.095964
    121 C41         9.7990   -0.4690   -3.0830 ca        1 MOL     -0.095964
    122 C42        11.1030   -2.1680   -1.3150 ca        1 MOL     -0.184266
    123 C43        11.1600   -0.3900   -2.9660 ca        1 MOL     -0.184266
    124 C44        11.8160   -1.2120   -2.0400 ca        1 MOL     -0.044733
    125 H51         5.0850   -2.0950   -2.5900 hn        1 MOL      0.318136
    126 H52         7.0240   -1.6090   -0.5720 h1        1 MOL      0.072640
    127 H53         7.3010   -1.0480   -3.5510 hc        1 MOL      0.102246
    128 H54         7.3410   -2.6540   -2.8520 hc        1 MOL      0.102246
    129 H55         9.1860   -2.9990   -0.8670 ha        1 MOL      0.103637
    130 H56         9.2670    0.1570   -3.7900 ha        1 MOL      0.103637
    131 H57        11.6510   -2.7580   -0.5990 ha        1 MOL      0.124512
    132 H58        11.7440    0.3630   -3.4880 ha        1 MOL      0.124512
    133 H59        12.8810   -1.1030   -1.8770 ha        1 MOL      0.086441
    134 N12         6.0670    1.3070   -1.9630 n         1 MOL     -0.109393
    135 C45         5.9370    2.7260   -1.4810 c3        1 MOL      0.067958
    136 C46         5.4220    2.8560   -0.0800 c         1 MOL      0.305798
    137 O20         5.8090    3.8020    0.6070 o         1 MOL     -0.539086
    138 C47         5.0110    3.4340   -2.4570 c3        1 MOL     -0.173832
    139 C48         5.1610    2.5480   -3.6700 c3        1 MOL      0.047852
    140 C49         5.2320    1.1340   -3.1180 c3        1 MOL      0.045941
    141 H60         6.9270    3.1760   -1.4950 h1        1 MOL      0.063591
    142 H61         4.0190    3.3800   -2.0160 hc        1 MOL      0.083684
    143 H62         5.3380    4.4500   -2.6530 hc        1 MOL      0.083684
    144 H63         4.3230    2.6430   -4.3750 hc        1 MOL      0.000962
    145 H64         6.0850    2.7410   -4.1940 hc        1 MOL      0.000962
    146 H65         4.2290    0.7290   -2.9870 h1        1 MOL      0.007731
    147 H66         5.7600    0.6140   -3.9160 h1        1 MOL      0.007731
    148 N13         4.5970    2.0110    0.4470 n         1 MOL     -0.012474
    149 C50         4.0480    2.0740    1.8510 c3        1 MOL     -0.102147
    150 C51         5.0050    1.5010    2.8940 c         1 MOL      0.482605
    151 O21         5.1570    2.0200    3.9950 o         1 MOL     -0.547316
    152 C52         2.7370    1.3080    1.7900 c3        1 MOL      0.004057
    153 C53         1.7040    2.2080    1.1200 c3        1 MOL      0.111242
    154 C54         0.3490    1.5860    0.7060 c         1 MOL      0.544773
    155 O22         0.0260    0.4500    1.0670 o         1 MOL     -0.671690
    156 O23        -0.4790    2.2200    0.0330 o         1 MOL     -0.671690
    157 H67         4.5260    1.0810    0.0710 hn        1 MOL      0.030929
    158 H68         3.8980    3.1230    2.1270 h1        1 MOL      0.116822
    159 H69         2.4310    1.1360    2.8220 hc        1 MOL      0.036322
    160 H70         2.8110    0.2910    1.4120 hc        1 MOL      0.036322
    161 H71         2.0950    2.6180    0.1940 hc        1 MOL     -0.008752
    162 H72         1.5530    3.0950    1.7490 hc        1 MOL     -0.008752
    163 N14         5.7610    0.3860    2.5860 n         1 MOL     -0.115225
    164 C55         6.8110   -0.1080    3.4440 c3        1 MOL     -0.145297
    165 H73         7.5010   -0.7160    2.8600 h1        1 MOL      0.056120
    166 H74         7.3500    0.7330    3.8820 h1        1 MOL      0.056120
    167 H75         6.3760   -0.7140    4.2390 h1        1 MOL      0.056120
    168 H76         5.6670   -0.1370    1.7230 hn        1 MOL      0.142293
    169 Ca1        -1.9380   -0.0350   -0.4540 Ca        1 MOL      1.732143
    170 O24        -4.0750   -0.9850    1.3330 oh        1 MOL     -0.683700
    171 H77        -3.4220   -0.8320    2.0150 ho        1 MOL      0.341822
    172 H78        -4.7930   -0.3890    1.5640 ho        1 MOL      0.341822
    173 O25        -1.9620    0.0630    2.7810 oh        1 MOL     -0.683700
    174 H79        -1.1630    0.2780    2.3170 ho        1 MOL      0.341822
    175 H80        -1.7500    0.2030    3.7070 ho        1 MOL      0.341822
@<TRIPOS>BOND
     1    1    2 1   
     2    1    4 1   
     3    1    5 1   
     4    1    6 1   
     5    2    3 2   
     6    2    7 1   
     7    7    8 1   
     8    7   15 1   
     9    8    9 1   
    10    8   11 1   
    11    8   16 1   
    12    9   10 2   
    13    9   19 1   
    14   11   12 1   
    15   11   17 1   
    16   11   18 1   
    17   12   13 1   
    18   12   14 1   
    19   19   20 1   
    20   19   24 1   
    21   20   21 1   
    22   20   23 1   
    23   20   25 1   
    24   21   22 2   
    25   21   29 1   
    26   23   26 1   
    27   23   27 1   
    28   23   28 1   
    29   29   30 1   
    30   29   37 1   
    31   30   31 1   
    32   30   33 1   
    33   30   38 1   
    34   31   32 2   
    35   31   41 1   
    36   33   34 1   
    37   33   39 1   
    38   33   40 1   
    39   34   35 1   
    40   34   36 1   
    41   41   42 1   
    42   41   45 1   
    43   42   43 1   
    44   42   46 1   
    45   42   47 1   
    46   43   44 2   
    47   43   48 1   
    48   48   49 1   
    49   48   56 1   
    50   49   50 1   
    51   49   52 1   
    52   49   57 1   
    53   50   51 2   
    54   50   62 1   
    55   52   53 1   
    56   52   58 1   
    57   52   59 1   
    58   53   54 1   
    59   53   55 2   
    60   54   60 1   
    61   54   61 1   
    62   62   63 1   
    63   62   66 1   
    64   63   64 1   
    65   63   67 1   
    66   63   68 1   
    67   64   65 2   
    68   64   69 1   
    69   69   70 1   
    70   69   76 1   
    71   70   71 1   
    72   70   73 1   
    73   70   77 1   
    74   71   72 2   
    75   71   83 1   
    76   73   74 1   
    77   73   75 1   
    78   73   78 1   
    79   74   80 1   
    80   74   81 1   
    81   74   82 1   
    82   75   79 1   
    83   83   84 1   
    84   83   91 1   
    85   84   85 1   
    86   84   87 1   
    87   84   92 1   
    88   85   86 2   
    89   85  102 1   
    90   87   88 1   
    91   87   89 1   
    92   87   93 1   
    93   88   90 1   
    94   88   94 1   
    95   88   95 1   
    96   89   96 1   
    97   89   97 1   
    98   89   98 1   
    99   90   99 1   
   100   90  100 1   
   101   90  101 1   
   102  102  103 1   
   103  102  110 1   
   104  103  104 1   
   105  103  106 1   
   106  103  111 1   
   107  104  105 2   
   108  104  114 1   
   109  106  107 1   
   110  106  112 1   
   111  106  113 1   
   112  107  108 1   
   113  107  109 1   
   114  114  115 1   
   115  114  125 1   
   116  115  116 1   
   117  115  118 1   
   118  115  126 1   
   119  116  117 2   
   120  116  134 1   
   121  118  119 1   
   122  118  127 1   
   123  118  128 1   
   124  119  120 ar  
   125  119  121 ar  
   126  120  122 ar  
   127  120  129 1   
   128  121  123 ar  
   129  121  130 1   
   130  122  124 ar  
   131  122  131 1   
   132  123  124 ar  
   133  123  132 1   
   134  124  133 1   
   135  134  135 1   
   136  134  140 1   
   137  135  136 1   
   138  135  138 1   
   139  135  141 1   
   140  136  137 2   
   141  136  148 1   
   142  138  139 1   
   143  138  142 1   
   144  138  143 1   
   145  139  140 1   
   146  139  144 1   
   147  139  145 1   
   148  140  146 1   
   149  140  147 1   
   150  148  149 1   
   151  148  157 1   
   152  149  150 1   
   153  149  152 1   
   154  149  158 1   
   155  150  151 2   
   156  150  163 1   
   157  152  153 1   
   158  152  159 1   
   159  152  160 1   
   160  153  154 1   
   161  153  161 1   
   162  153  162 1   
   163  154  155 1   
   164  154  156 1   
   165  163  164 1   
   166  163  168 1   
   167  164  165 1   
   168  164  166 1   
   169  164  167 1   
   170  170  171 1   
   171  170  172 1   
   172  173  174 1   
   173  173  175 1   
@<TRIPOS>SUBSTRUCTURE
     1 MOL         1 TEMP              0 ****  ****    0 ROOT
