@<TRIPOS>MOLECULE
MOL
  189   185     1     0     0
SMALL
resp


@<TRIPOS>ATOM
      1 C1          1.5060   -1.4550    6.8950 c3        1 MOL     -0.368983
      2 C2          1.4590   -1.2860    5.3060 c         1 MOL      0.755787
      3 O1          0.5040   -1.6250    4.6440 o         1 MOL     -0.645695
      4 H1          0.7540   -0.8110    7.3510 hc        1 MOL      0.087253
      5 H2          1.3010   -2.4940    7.1560 hc        1 MOL      0.087253
      6 H3          2.4930   -1.1760    7.2610 hc        1 MOL      0.087253
      7 N1          2.5420   -0.8780    4.7880 n         1 MOL     -0.528679
      8 C3          2.8630   -1.0340    3.3100 c3        1 MOL     -0.018240
      9 C4          2.9690   -2.5340    3.0050 c         1 MOL      0.608476
     10 O2          3.8430   -3.2270    3.5260 o         1 MOL     -0.566358
     11 C5          4.0930   -0.1890    2.9420 c3        1 MOL     -0.199538
     12 C6          4.3660    0.0050    1.4370 c         1 MOL      0.798384
     13 O3          5.3300    0.7060    1.1640 o         1 MOL     -0.710805
     14 O4          3.5820   -0.3690    0.5130 o         1 MOL     -0.710805
     15 H4          3.3210   -0.4960    5.3160 hn        1 MOL      0.317410
     16 H5          2.0200   -0.6300    2.7490 h1        1 MOL      0.034537
     17 H6          5.0350   -0.5390    3.3470 hc        1 MOL      0.059019
     18 H7          3.9120    0.7790    3.4130 hc        1 MOL      0.059019
     19 N2          2.0470   -3.0250    2.1830 n         1 MOL     -0.277081
     20 C7          2.0480   -4.4430    1.8610 c3        1 MOL      0.038847
     21 C8          3.1630   -4.9470    0.9330 c         1 MOL      0.371572
     22 O5          3.7890   -5.9420    1.1860 o         1 MOL     -0.535946
     23 C9          0.6830   -5.0040    1.4910 c3        1 MOL     -0.159164
     24 C10         0.2830   -4.5820    0.0580 c3        1 MOL      0.129203
     25 C11        -1.1110   -4.9080   -0.2360 c3        1 MOL     -0.126402
     26 C12        -1.4130   -4.5450   -1.6840 c3        1 MOL      0.222989
     27 N3         -2.6010   -5.3160   -2.1600 n4        1 MOL     -0.449358
     28 H8          1.4350   -2.3880    1.7020 hn        1 MOL      0.259166
     29 H9          2.2420   -4.9270    2.8260 h1        1 MOL      0.066142
     30 H10        -0.0700   -4.6790    2.2080 hc        1 MOL      0.067817
     31 H11         0.7650   -6.0980    1.4670 hc        1 MOL      0.067817
     32 H12         0.9070   -5.0880   -0.6740 hc        1 MOL     -0.014508
     33 H13         0.4340   -3.5110   -0.1000 hc        1 MOL     -0.014508
     34 H14        -1.9040   -4.5820    0.4270 hc        1 MOL      0.025178
     35 H15        -1.2700   -5.9850   -0.1740 hc        1 MOL      0.025178
     36 H16        -0.5780   -4.6860   -2.3610 hx        1 MOL      0.025812
     37 H17        -1.5830   -3.4760   -1.8040 hx        1 MOL      0.025812
     38 H18        -3.4080   -5.1530   -1.5810 hn        1 MOL      0.336244
     39 H19        -2.8420   -5.0910   -3.1220 hn        1 MOL      0.336244
     40 H20        -2.3380   -6.2930   -2.1140 hn        1 MOL      0.336244
     41 N4          3.2960   -4.2630   -0.1670 n         1 MOL     -0.009662
     42 C13         4.1690   -4.6070   -1.3060 c3        1 MOL     -0.101626
     43 C14         5.5050   -3.8450   -1.2020 c         1 MOL      0.437801
     44 O6          6.4860   -4.2480   -1.8500 o         1 MOL     -0.517730
     45 C15         3.5320   -4.2420   -2.6090 c3        1 MOL     -0.136544
     46 C16         2.8310   -2.8370   -2.7260 c         1 MOL      0.691593
     47 O7          2.3350   -2.5250   -3.8290 o         1 MOL     -0.687085
     48 O8          2.3960   -2.2370   -1.7070 o         1 MOL     -0.687085
     49 H21         2.6880   -3.4770   -0.3320 hn        1 MOL     -0.007253
     50 H22         4.4440   -5.6640   -1.3380 h1        1 MOL      0.106088
     51 H23         2.7900   -4.9870   -2.9140 hc        1 MOL      0.061927
     52 H24         4.1950   -4.3470   -3.4760 hc        1 MOL      0.061927
     53 N5          5.6090   -2.7880   -0.3130 n         1 MOL     -0.135551
     54 C17         6.7960   -2.0970    0.0970 c3        1 MOL     -0.255976
     55 C18         7.2990   -0.9970   -0.9060 c         1 MOL      0.484114
     56 O9          8.4990   -0.7330   -1.0400 o         1 MOL     -0.541247
     57 H25         4.7850   -2.4870    0.1850 hn        1 MOL      0.131192
     58 H26         7.5430   -2.8850    0.2440 h1        1 MOL      0.128580
     59 H27         6.6000   -1.6740    1.0790 h1        1 MOL      0.128580
     60 N6          6.3410   -0.4510   -1.6310 n         1 MOL     -0.185640
     61 C19         6.6920    0.5430   -2.6540 c3        1 MOL     -0.000645
     62 C20         7.0190    1.9180   -2.0450 c         1 MOL      0.397129
     63 O10         7.9030    2.5650   -2.7050 o         1 MOL     -0.551847
     64 C21         5.5820    0.6150   -3.7030 c3        1 MOL     -0.232544
     65 C22         4.1990    0.8840   -3.1050 c         1 MOL      0.677701
     66 O11         4.0130    1.8070   -2.2950 o         1 MOL     -0.625584
     67 O12         3.1970    0.2190   -3.4280 o         1 MOL     -0.625584
     68 H28         5.3740   -0.6360   -1.4400 hn        1 MOL      0.108079
     69 H29         7.5960    0.1710   -3.1260 h1        1 MOL      0.116826
     70 H30         5.5110   -0.3410   -4.2210 hc        1 MOL      0.076519
     71 H31         5.8000    1.3700   -4.4530 hc        1 MOL      0.076519
     72 N7          6.5290    2.3480   -0.8720 n         1 MOL     -0.136625
     73 C23         6.7430    3.6810   -0.2790 c3        1 MOL     -0.156568
     74 C24         5.4890    4.5370    0.0590 c         1 MOL      0.581244
     75 O13         5.6230    5.5010    0.7960 o         1 MOL     -0.577693
     76 H32         6.0720    1.6730   -0.2810 hn        1 MOL      0.268324
     77 H33         7.3620    4.2950   -0.9340 h1        1 MOL      0.091623
     78 H34         7.2730    3.5050    0.6530 h1        1 MOL      0.091623
     79 N8          4.2530    4.1000   -0.3410 n         1 MOL     -0.247417
     80 C25         2.9830    4.7830    0.0220 c3        1 MOL     -0.103614
     81 C26         1.9780    3.6470    0.3230 c         1 MOL      0.718435
     82 O14         2.1670    2.4950   -0.0790 o         1 MOL     -0.587105
     83 C27         2.4160    5.7160   -1.0430 c3        1 MOL      0.302603
     84 C28         3.3060    6.8760   -1.4100 c3        1 MOL     -0.352164
     85 O15         2.0570    5.0180   -2.2010 oh        1 MOL     -0.619751
     86 H35         4.2470    3.2150   -0.8350 hn        1 MOL      0.095935
     87 H36         3.1420    5.3270    0.9480 h1        1 MOL      0.086893
     88 H37         1.4910    5.9810   -0.5300 h1        1 MOL      0.048244
     89 H38         2.8110    4.6730   -2.6750 ho        1 MOL      0.413609
     90 H39         3.4200    7.4480   -0.4900 hc        1 MOL      0.098335
     91 H40         4.2740    6.6070   -1.8310 hc        1 MOL      0.098335
     92 H41         2.7390    7.5350   -2.0640 hc        1 MOL      0.098335
     93 N9          0.8840    4.0770    1.0360 n         1 MOL     -0.663160
     94 C29        -0.3100    3.1780    1.3360 c3        1 MOL      0.099924
     95 C30        -1.5290    3.5900    0.4940 c         1 MOL      0.624106
     96 O16        -1.8200    4.7930    0.3850 o         1 MOL     -0.589659
     97 C31        -0.4880    3.1870    2.8990 c3        1 MOL     -0.091799
     98 C32         0.4030    2.1360    3.5920 c3        1 MOL      0.142721
     99 C33        -1.9380    2.8670    3.3060 c3        1 MOL     -0.066888
    100 C34         0.5150    2.5460    5.0660 c3        1 MOL     -0.213298
    101 H42         0.7310    5.0590    1.2350 hn        1 MOL      0.325826
    102 H43        -0.0280    2.1420    1.1150 h1        1 MOL      0.025435
    103 H44        -0.3010    4.2080    3.2200 hc        1 MOL      0.066522
    104 H45         1.3620    2.0780    3.0850 hc        1 MOL      0.029895
    105 H46        -0.0590    1.1480    3.5370 hc        1 MOL      0.029895
    106 H47        -2.0850    1.7950    3.2170 hc        1 MOL      0.015686
    107 H48        -2.1310    3.2440    4.3140 hc        1 MOL      0.015686
    108 H49        -2.6570    3.3990    2.6910 hc        1 MOL      0.015686
    109 H50         1.2480    1.8970    5.5330 hc        1 MOL      0.041368
    110 H51         0.8630    3.5810    5.1260 hc        1 MOL      0.041368
    111 H52        -0.4120    2.2830    5.5580 hc        1 MOL      0.041368
    112 N10        -2.1960    2.6650   -0.1340 n         1 MOL     -0.265044
    113 C35        -3.4920    2.8100   -0.8770 c3        1 MOL      0.003769
    114 C36        -4.8060    2.6070   -0.1040 c         1 MOL      0.405681
    115 O17        -4.7370    2.1460    1.0260 o         1 MOL     -0.392238
    116 C37        -3.4870    1.9200   -2.0620 c3        1 MOL      0.151125
    117 C38        -2.3920    2.1460   -3.1300 c3        1 MOL     -0.035594
    118 O18        -3.3010    0.5840   -1.5650 oh        1 MOL     -0.589988
    119 H53        -1.8970    1.7080   -0.0300 hn        1 MOL      0.136545
    120 H54        -3.5390    3.7920   -1.3310 h1        1 MOL      0.047406
    121 H55        -4.3590    2.0340   -2.7200 h1        1 MOL      0.030314
    122 H56        -2.3440    0.4870   -1.5730 ho        1 MOL      0.371424
    123 H57        -2.2480    1.1830   -3.6250 hc        1 MOL      0.020136
    124 H58        -2.7840    2.8330   -3.8910 hc        1 MOL      0.020136
    125 H59        -1.4390    2.5260   -2.7720 hc        1 MOL      0.020136
    126 N11        -5.9300    2.6940   -0.7780 n         1 MOL     -0.362602
    127 C39        -7.1660    2.2280   -0.1380 c3        1 MOL      0.036239
    128 C40        -7.2930    0.7470    0.0620 c         1 MOL      0.201637
    129 O19        -7.7480    0.3900    1.1220 o         1 MOL     -0.483982
    130 C41        -8.4640    2.4770   -0.9120 c3        1 MOL      0.141713
    131 C42        -8.9700    3.9000   -0.6620 c3        1 MOL     -0.330830
    132 O20        -8.3260    2.3100   -2.3100 oh        1 MOL     -0.608176
    133 H60        -5.8970    3.0880   -1.7090 hn        1 MOL      0.310473
    134 H61        -7.1540    2.7250    0.8290 h1        1 MOL      0.153792
    135 H62        -9.2890    1.8240   -0.6030 h1        1 MOL      0.086962
    136 H63        -9.2350    2.4810   -2.5740 ho        1 MOL      0.402473
    137 H64        -8.1800    4.5570   -1.0090 hc        1 MOL      0.102002
    138 H65        -9.9360    4.0780   -1.1450 hc        1 MOL      0.102002
    139 H66        -9.2140    4.1080    0.3850 hc        1 MOL      0.102002
    140 N12        -6.6960   -0.1080   -0.7780 n         1 MOL     -0.021038
    141 C43        -6.6200   -1.5940   -0.5940 c3        1 MOL     -0.063296
    142 C44        -5.7590   -2.0120    0.5920 c         1 MOL      0.443550
    143 O21        -5.7120   -3.1890    0.9760 o         1 MOL     -0.562362
    144 C45        -6.1470   -2.2290   -1.9360 c3        1 MOL     -0.233987
    145 C46        -7.2350   -2.6760   -2.8900 c3        1 MOL      0.230255
    146 C47        -8.1830   -1.6060   -3.3010 c3        1 MOL     -0.029134
    147 C48        -9.2800   -2.2290   -4.2060 c3        1 MOL     -0.051067
    148 N13       -10.3040   -2.9800   -3.3950 n4        1 MOL     -0.331130
    149 H67        -6.4100    0.4190   -1.5940 hn        1 MOL      0.189291
    150 H68        -7.5750   -2.0430   -0.3340 h1        1 MOL      0.081548
    151 H69        -5.6000   -3.1120   -1.6100 hc        1 MOL      0.074651
    152 H70        -5.3850   -1.5880   -2.3770 hc        1 MOL      0.074651
    153 H71        -7.8040   -3.5040   -2.4600 hc        1 MOL     -0.043557
    154 H72        -6.6490   -3.1100   -3.6970 hc        1 MOL     -0.043557
    155 H73        -7.6880   -0.7840   -3.8070 hc        1 MOL      0.040484
    156 H74        -8.7700   -1.1570   -2.4960 hc        1 MOL      0.040484
    157 H75        -8.8070   -2.8150   -4.9890 hx        1 MOL      0.109940
    158 H76        -9.7090   -1.3830   -4.7480 hx        1 MOL      0.109940
    159 H77        -9.8480   -3.4860   -2.6500 hn        1 MOL      0.278114
    160 H78       -10.8540   -2.3640   -2.8010 hn        1 MOL      0.278114
    161 H79       -10.9410   -3.5570   -3.9300 hn        1 MOL      0.278114
    162 N14        -4.9790   -1.0800    1.1310 n         1 MOL      0.011105
    163 C49        -4.1340   -1.2600    2.3290 c3        1 MOL     -0.293603
    164 C50        -4.5810   -0.5980    3.6310 c         1 MOL      0.564819
    165 O22        -4.1150   -0.8260    4.7490 o         1 MOL     -0.504112
    166 C51        -2.7070   -0.8150    1.9210 c3        1 MOL      0.028883
    167 C52        -1.7960   -1.6500    1.0160 c3        1 MOL     -0.043412
    168 C53        -0.6480   -0.8250    0.4700 c         1 MOL      0.713922
    169 O23         0.5060   -1.0690    0.7710 o         1 MOL     -0.748896
    170 O24        -0.8160    0.1480   -0.3630 o         1 MOL     -0.748896
    171 H80        -5.0610   -0.1840    0.6680 hn        1 MOL     -0.075039
    172 H81        -4.1740   -2.3160    2.5870 h1        1 MOL      0.155205
    173 H82        -2.0480   -0.7560    2.7830 hc        1 MOL      0.103784
    174 H83        -2.7530    0.1850    1.4940 hc        1 MOL      0.103784
    175 H84        -2.3830   -1.9030    0.1300 hc        1 MOL      0.014418
    176 H85        -1.3900   -2.4990    1.5680 hc        1 MOL      0.014418
    177 N15        -5.5350    0.3650    3.4700 n         1 MOL     -0.387657
    178 C54        -5.7630    1.3380    4.5640 c3        1 MOL     -0.173007
    179 H86        -6.6960    1.8730    4.3850 h1        1 MOL      0.097678
    180 H87        -5.8260    0.8090    5.5150 h1        1 MOL      0.097678
    181 H88        -4.9380    2.0490    4.5970 h1        1 MOL      0.097678
    182 H89        -5.9420    0.5270    2.5620 hn        1 MOL      0.297538
    183 Ca1         1.7530    0.1560   -1.1890 Ca        1 MOL      1.743619
    184 O25         0.9030    2.2220   -2.7070 oh        1 MOL     -0.818842
    185 H90         1.3240    3.0660   -2.5400 ho        1 MOL      0.387854
    186 H91         0.7160    2.2350   -3.6440 ho        1 MOL      0.387854
    187 O26         0.3820   -0.8640   -3.3250 oh        1 MOL     -0.818842
    188 H92        -0.2970   -1.5350   -3.4600 ho        1 MOL      0.387854
    189 H93         1.2050   -1.3430   -3.3980 ho        1 MOL      0.387854
@<TRIPOS>BOND
     1    1    2 1   
     2    1    4 1   
     3    1    5 1   
     4    1    6 1   
     5    2    3 2   
     6    2    7 1   
     7    7    8 1   
     8    7   15 1   
     9    8    9 1   
    10    8   11 1   
    11    8   16 1   
    12    9   10 2   
    13    9   19 1   
    14   11   12 1   
    15   11   17 1   
    16   11   18 1   
    17   12   13 1   
    18   12   14 1   
    19   19   20 1   
    20   19   28 1   
    21   20   21 1   
    22   20   23 1   
    23   20   29 1   
    24   21   22 2   
    25   21   41 1   
    26   23   24 1   
    27   23   30 1   
    28   23   31 1   
    29   24   25 1   
    30   24   32 1   
    31   24   33 1   
    32   25   26 1   
    33   25   34 1   
    34   25   35 1   
    35   26   27 1   
    36   26   36 1   
    37   26   37 1   
    38   27   38 1   
    39   27   39 1   
    40   27   40 1   
    41   41   42 1   
    42   41   49 1   
    43   42   43 1   
    44   42   45 1   
    45   42   50 1   
    46   43   44 2   
    47   43   53 1   
    48   45   46 1   
    49   45   51 1   
    50   45   52 1   
    51   46   47 1   
    52   46   48 1   
    53   53   54 1   
    54   53   57 1   
    55   54   55 1   
    56   54   58 1   
    57   54   59 1   
    58   55   56 2   
    59   55   60 1   
    60   60   61 1   
    61   60   68 1   
    62   61   62 1   
    63   61   64 1   
    64   61   69 1   
    65   62   63 2   
    66   62   72 1   
    67   64   65 1   
    68   64   70 1   
    69   64   71 1   
    70   65   66 1   
    71   65   67 1   
    72   72   73 1   
    73   72   76 1   
    74   73   74 1   
    75   73   77 1   
    76   73   78 1   
    77   74   75 2   
    78   74   79 1   
    79   79   80 1   
    80   79   86 1   
    81   80   81 1   
    82   80   83 1   
    83   80   87 1   
    84   81   82 2   
    85   81   93 1   
    86   83   84 1   
    87   83   85 1   
    88   83   88 1   
    89   84   90 1   
    90   84   91 1   
    91   84   92 1   
    92   85   89 1   
    93   93   94 1   
    94   93  101 1   
    95   94   95 1   
    96   94   97 1   
    97   94  102 1   
    98   95   96 2   
    99   95  112 1   
   100   97   98 1   
   101   97   99 1   
   102   97  103 1   
   103   98  100 1   
   104   98  104 1   
   105   98  105 1   
   106   99  106 1   
   107   99  107 1   
   108   99  108 1   
   109  100  109 1   
   110  100  110 1   
   111  100  111 1   
   112  112  113 1   
   113  112  119 1   
   114  113  114 1   
   115  113  116 1   
   116  113  120 1   
   117  114  115 2   
   118  114  126 1   
   119  116  117 1   
   120  116  118 1   
   121  116  121 1   
   122  117  123 1   
   123  117  124 1   
   124  117  125 1   
   125  118  122 1   
   126  126  127 1   
   127  126  133 1   
   128  127  128 1   
   129  127  130 1   
   130  127  134 1   
   131  128  129 2   
   132  128  140 1   
   133  130  131 1   
   134  130  132 1   
   135  130  135 1   
   136  131  137 1   
   137  131  138 1   
   138  131  139 1   
   139  132  136 1   
   140  140  141 1   
   141  140  149 1   
   142  141  142 1   
   143  141  144 1   
   144  141  150 1   
   145  142  143 2   
   146  142  162 1   
   147  144  145 1   
   148  144  151 1   
   149  144  152 1   
   150  145  146 1   
   151  145  153 1   
   152  145  154 1   
   153  146  147 1   
   154  146  155 1   
   155  146  156 1   
   156  147  148 1   
   157  147  157 1   
   158  147  158 1   
   159  148  159 1   
   160  148  160 1   
   161  148  161 1   
   162  162  163 1   
   163  162  171 1   
   164  163  164 1   
   165  163  166 1   
   166  163  172 1   
   167  164  165 2   
   168  164  177 1   
   169  166  167 1   
   170  166  173 1   
   171  166  174 1   
   172  167  168 1   
   173  167  175 1   
   174  167  176 1   
   175  168  169 1   
   176  168  170 1   
   177  177  178 1   
   178  177  182 1   
   179  178  179 1   
   180  178  180 1   
   181  178  181 1   
   182  184  185 1   
   183  184  186 1   
   184  187  188 1   
   185  187  189 1   
@<TRIPOS>SUBSTRUCTURE
     1 MOL         1 TEMP              0 ****  ****    0 ROOT
