@<TRIPOS>MOLECULE
MOL
  189   185     1     0     0
SMALL
resp


@<TRIPOS>ATOM
      1 C1          0.2400    3.6990   -4.9100 c3        1 MOL     -0.619103
      2 C2          0.7060    3.1080   -3.5840 c         1 MOL      0.830399
      3 O1         -0.0520    3.3370   -2.6610 o         1 MOL     -0.563379
      4 H1          1.1030    4.0610   -5.4690 hc        1 MOL      0.155233
      5 H2         -0.2720    2.9310   -5.4910 hc        1 MOL      0.155233
      6 H3         -0.4430    4.5270   -4.7190 hc        1 MOL      0.155233
      7 N1          1.8710    2.4840   -3.4030 n         1 MOL     -0.668339
      8 C3          2.4590    2.0410   -2.1640 c3        1 MOL      0.255499
      9 C4          3.0150    3.2320   -1.3100 c         1 MOL      0.318612
     10 O2          4.1130    3.7090   -1.6030 o         1 MOL     -0.515104
     11 C5          3.6230    1.0720   -2.4930 c3        1 MOL     -0.130456
     12 C6          4.2390    0.3680   -1.2700 c         1 MOL      0.855348
     13 O3          3.7100    0.4640   -0.1370 o         1 MOL     -0.737865
     14 O4          5.3260   -0.2570   -1.4130 o         1 MOL     -0.737865
     15 H4          2.4450    2.3010   -4.2160 hn        1 MOL      0.323001
     16 H5          1.7090    1.4100   -1.6900 h1        1 MOL     -0.035213
     17 H6          4.4660    1.5090   -3.0220 hc        1 MOL      0.031603
     18 H7          3.2470    0.3300   -3.2030 hc        1 MOL      0.031603
     19 N2          2.2360    3.6190   -0.3050 n         1 MOL     -0.036432
     20 C7          2.5600    4.8910    0.4320 c3        1 MOL      0.022658
     21 C8          3.6210    4.7000    1.4900 c         1 MOL      0.511909
     22 O5          4.4190    5.6430    1.6680 o         1 MOL     -0.572650
     23 C9          1.2950    5.5170    1.0500 c3        1 MOL     -0.070426
     24 C10         0.0300    5.5080    0.1670 c3        1 MOL      0.071578
     25 C11         0.3780    6.2560   -1.1150 c3        1 MOL     -0.085604
     26 C12        -0.8460    6.8750   -1.7180 c3        1 MOL      0.083361
     27 N3         -0.6150    7.8290   -2.8190 n4        1 MOL     -0.262197
     28 H8          1.4000    3.0810   -0.1230 hn        1 MOL      0.108573
     29 H9          3.0180    5.5780   -0.2740 h1        1 MOL      0.024772
     30 H10         1.5610    6.5030    1.4200 hc        1 MOL      0.023649
     31 H11         1.1820    4.9710    1.9910 hc        1 MOL      0.023649
     32 H12        -0.8000    6.0020    0.6710 hc        1 MOL      0.020611
     33 H13        -0.2690    4.4890   -0.0910 hc        1 MOL      0.020611
     34 H14         0.8000    5.6080   -1.8830 hc        1 MOL      0.031776
     35 H15         1.1340    7.0010   -0.8620 hc        1 MOL      0.031776
     36 H16        -1.2570    7.5320   -0.9450 hx        1 MOL      0.049660
     37 H17        -1.5450    6.0720   -1.9540 hx        1 MOL      0.049660
     38 H18        -1.3250    8.5410   -2.8590 hn        1 MOL      0.295625
     39 H19         0.2500    8.3350   -2.7000 hn        1 MOL      0.295625
     40 H20        -0.6390    7.3980   -3.7300 hn        1 MOL      0.295625
     41 N4          3.6790    3.4820    2.0560 n         1 MOL     -0.317372
     42 C13         4.6190    3.1460    3.1390 c3        1 MOL      0.052796
     43 C14         5.8160    2.2110    2.6980 c         1 MOL      0.408794
     44 O6          6.6400    1.9080    3.4920 o         1 MOL     -0.468870
     45 C15         3.7870    2.6390    4.3870 c3        1 MOL     -0.237214
     46 C16         2.7790    1.5210    4.0540 c         1 MOL      0.864601
     47 O7          1.7880    1.2490    4.7280 o         1 MOL     -0.725271
     48 O8          3.0620    0.8370    3.0810 o         1 MOL     -0.725271
     49 H21         3.1640    2.7090    1.6770 hn        1 MOL      0.147064
     50 H22         5.0830    4.0500    3.5150 h1        1 MOL      0.092315
     51 H23         3.2550    3.5340    4.7290 hc        1 MOL      0.045995
     52 H24         4.4020    2.3290    5.2400 hc        1 MOL      0.045995
     53 N5          5.9210    1.8790    1.3950 n         1 MOL     -0.076658
     54 C17         7.1510    1.3130    0.9040 c3        1 MOL     -0.402638
     55 C18         7.3200   -0.0510    1.4950 c         1 MOL      0.815485
     56 O9          8.2780   -0.3000    2.2880 o         1 MOL     -0.587804
     57 H25         5.1280    2.0020    0.7940 hn        1 MOL      0.173667
     58 H26         7.9780    1.9720    1.1660 h1        1 MOL      0.139052
     59 H27         6.9900    1.0770   -0.1420 h1        1 MOL      0.139052
     60 N6          6.6130   -1.0740    0.9940 n         1 MOL     -0.542922
     61 C19         6.7710   -2.5010    1.4660 c3        1 MOL     -0.028515
     62 C20         6.7500   -3.5520    0.3390 c         1 MOL      0.523768
     63 O10         6.8810   -4.7050    0.6650 o         1 MOL     -0.536772
     64 C21         5.6810   -2.7480    2.5210 c3        1 MOL     -0.162726
     65 C22         4.2770   -2.4170    2.1340 c         1 MOL      0.751359
     66 O11         3.8970   -2.5150    0.9440 o         1 MOL     -0.723598
     67 O12         3.4490   -2.1290    3.0740 o         1 MOL     -0.723598
     68 H28         5.9850   -0.8950    0.2250 hn        1 MOL      0.194883
     69 H29         7.6980   -2.6280    2.0360 h1        1 MOL      0.118739
     70 H30         5.9020   -2.1870    3.4290 hc        1 MOL      0.067609
     71 H31         5.6890   -3.8170    2.7280 hc        1 MOL      0.067609
     72 N7          6.7090   -3.2040   -0.8890 n         1 MOL     -0.400615
     73 C23         6.5080   -4.1780   -1.9850 c3        1 MOL     -0.172631
     74 C24         5.0960   -4.3600   -2.3720 c         1 MOL      0.604944
     75 O13         4.9180   -5.0840   -3.3660 o         1 MOL     -0.603805
     76 H32         6.5260   -2.2460   -1.1700 hn        1 MOL      0.346405
     77 H33         6.9420   -5.1450   -1.7410 h1        1 MOL      0.123536
     78 H34         6.9800   -3.7040   -2.8480 h1        1 MOL      0.123536
     79 N8          4.0980   -3.7450   -1.7290 n         1 MOL     -0.265446
     80 C25         2.6300   -3.9710   -1.8890 c3        1 MOL     -0.350294
     81 C26         1.7720   -2.6970   -1.8030 c         1 MOL      0.849869
     82 O14         1.9710   -1.7940   -0.9890 o         1 MOL     -0.746090
     83 C27         2.0820   -5.0640   -0.9210 c3        1 MOL      0.520133
     84 C28         2.3310   -6.4830   -1.4500 c3        1 MOL     -0.397627
     85 O15         2.6730   -4.9360    0.3650 oh        1 MOL     -0.642593
     86 H35         4.3130   -3.1620   -0.9280 hn        1 MOL      0.174147
     87 H36         2.5720   -4.2540   -2.9390 h1        1 MOL      0.127636
     88 H37         0.9950   -4.9510   -0.9290 h1        1 MOL     -0.022024
     89 H38         3.1590   -4.1070    0.3440 ho        1 MOL      0.479292
     90 H39         1.8580   -6.8100   -2.3810 hc        1 MOL      0.100728
     91 H40         3.4140   -6.5250   -1.5800 hc        1 MOL      0.100728
     92 H41         2.0640   -7.2370   -0.7230 hc        1 MOL      0.100728
     93 N9          0.6920   -2.7850   -2.5980 n         1 MOL     -0.634976
     94 C29        -0.5180   -1.9310   -2.4930 c3        1 MOL      0.096653
     95 C30        -1.6320   -2.8010   -1.7800 c         1 MOL      0.464971
     96 O16        -1.9090   -3.8440   -2.2810 o         1 MOL     -0.532818
     97 C31        -0.9740   -1.5190   -3.8800 c3        1 MOL      0.422181
     98 C32         0.0030   -0.6700   -4.6300 c3        1 MOL      0.033748
     99 C33        -2.2730   -0.7300   -3.6450 c3        1 MOL     -0.467582
    100 C34        -0.1730   -0.7980   -6.2000 c3        1 MOL     -0.196281
    101 H42         0.5600   -3.6190   -3.1490 hn        1 MOL      0.289441
    102 H43        -0.3410   -1.0210   -1.9210 h1        1 MOL      0.145081
    103 H44        -1.2440   -2.4420   -4.3990 hc        1 MOL     -0.051374
    104 H45         0.9590   -1.1070   -4.3390 hc        1 MOL     -0.023853
    105 H46        -0.0070    0.3500   -4.2340 hc        1 MOL     -0.023853
    106 H47        -2.0440    0.1040   -2.9790 hc        1 MOL      0.076302
    107 H48        -2.6630   -0.3990   -4.6070 hc        1 MOL      0.076302
    108 H49        -3.0270   -1.3240   -3.1370 hc        1 MOL      0.076302
    109 H50        -1.2020   -0.5330   -6.4110 hc        1 MOL      0.043354
    110 H51         0.4740   -0.1690   -6.8230 hc        1 MOL      0.043354
    111 H52        -0.0110   -1.8700   -6.3190 hc        1 MOL      0.043354
    112 N10        -2.3690   -2.2320   -0.7870 n         1 MOL     -0.092086
    113 C35        -3.6910   -2.6770   -0.3180 c3        1 MOL      0.017570
    114 C36        -4.9770   -2.0760   -0.8880 c         1 MOL      0.325700
    115 O17        -4.9500   -1.0400   -1.5420 o         1 MOL     -0.304007
    116 C37        -3.8660   -2.4970    1.1960 c3        1 MOL      0.185655
    117 C38        -2.8890   -3.3070    1.9630 c3        1 MOL     -0.661460
    118 O18        -3.8010   -1.1110    1.3800 oh        1 MOL     -0.343288
    119 H53        -2.1040   -1.2940   -0.5220 hn        1 MOL     -0.007126
    120 H54        -3.6610   -3.7550   -0.4660 h1        1 MOL      0.061361
    121 H55        -4.8360   -2.7880    1.5890 h1        1 MOL     -0.013058
    122 H56        -3.1250   -0.8940    2.0240 ho        1 MOL      0.340426
    123 H57        -2.9590   -4.3390    1.6110 hc        1 MOL      0.195914
    124 H58        -1.8650   -2.9880    1.7500 hc        1 MOL      0.195914
    125 H59        -3.0360   -3.2020    3.0400 hc        1 MOL      0.195914
    126 N11        -6.1530   -2.6650   -0.5770 n         1 MOL     -0.351077
    127 C39        -7.4390   -1.9680   -0.7800 c3        1 MOL     -0.218823
    128 C40        -7.5730   -0.5960   -0.2380 c         1 MOL      0.249222
    129 O19        -8.3240    0.2330   -0.7260 o         1 MOL     -0.458918
    130 C41        -8.6300   -2.8070   -0.1760 c3        1 MOL      0.452373
    131 C42        -9.2160   -3.7660   -1.1800 c3        1 MOL     -0.372029
    132 O20        -8.3210   -3.4390    1.0320 oh        1 MOL     -0.593259
    133 H60        -6.1040   -3.6090   -0.2040 hn        1 MOL      0.300639
    134 H61        -7.6250   -1.7730   -1.8420 h1        1 MOL      0.173581
    135 H62        -9.4080   -2.0730    0.0610 h1        1 MOL      0.012444
    136 H63        -8.7710   -2.9390    1.7250 ho        1 MOL      0.308839
    137 H64       -10.1330   -4.2620   -0.8620 hc        1 MOL      0.107744
    138 H65        -9.4490   -3.3140   -2.1410 hc        1 MOL      0.107744
    139 H66        -8.4440   -4.5120   -1.3500 hc        1 MOL      0.107744
    140 N12        -6.7570   -0.2270    0.7810 n         1 MOL     -0.063131
    141 C43        -6.7980    1.0530    1.4630 c3        1 MOL     -0.122497
    142 C44        -5.9460    2.0720    0.7560 c         1 MOL      0.438702
    143 O21        -6.3240    3.2440    0.6940 o         1 MOL     -0.515091
    144 C45        -6.5150    0.9650    2.9350 c3        1 MOL      0.013958
    145 C46        -7.4590   -0.0150    3.7130 c3        1 MOL      0.063523
    146 C47        -7.0530    0.0140    5.1840 c3        1 MOL     -0.077288
    147 C48        -8.0290   -0.7940    6.0520 c3        1 MOL     -0.080258
    148 N13        -8.2640   -2.1040    5.4040 n4        1 MOL     -0.268816
    149 H67        -6.2440   -0.9940    1.2050 hn        1 MOL      0.175670
    150 H68        -7.8370    1.3510    1.3650 h1        1 MOL      0.109930
    151 H69        -6.6920    1.9640    3.3260 hc        1 MOL      0.026027
    152 H70        -5.4840    0.6710    3.1220 hc        1 MOL      0.026027
    153 H71        -7.3460   -1.0070    3.2790 hc        1 MOL     -0.013181
    154 H72        -8.5080    0.2660    3.5990 hc        1 MOL     -0.013181
    155 H73        -7.0380    1.0110    5.6390 hc        1 MOL      0.059038
    156 H74        -6.1130   -0.4920    5.4090 hc        1 MOL      0.059038
    157 H75        -9.0030   -0.3360    6.2330 hx        1 MOL      0.132836
    158 H76        -7.5820   -1.0430    7.0140 hx        1 MOL      0.132836
    159 H77        -8.5560   -2.0340    4.4400 hn        1 MOL      0.270775
    160 H78        -7.3530   -2.5040    5.2230 hn        1 MOL      0.270775
    161 H79        -8.9060   -2.7100    5.8860 hn        1 MOL      0.270775
    162 N14        -4.8550    1.5860    0.1200 n         1 MOL     -0.044431
    163 C49        -3.9400    2.4940   -0.6310 c3        1 MOL     -0.111739
    164 C50        -4.5270    2.7310   -2.0320 c         1 MOL      0.458889
    165 O22        -4.6150    3.8800   -2.4970 o         1 MOL     -0.545833
    166 C51        -2.5480    1.8130   -0.7100 c3        1 MOL      0.201347
    167 C52        -1.7980    1.9000    0.6290 c3        1 MOL      0.067553
    168 C53        -0.4310    1.0920    0.6050 c         1 MOL      0.559839
    169 O23        -0.4310   -0.1610    0.4000 o         1 MOL     -0.641367
    170 O24         0.5820    1.6810    0.9910 o         1 MOL     -0.641367
    171 H80        -4.5660    0.6250    0.2920 hn        1 MOL     -0.027658
    172 H81        -3.8450    3.4120   -0.0520 h1        1 MOL      0.070056
    173 H82        -2.0320    2.3070   -1.5310 hc        1 MOL     -0.049333
    174 H83        -2.5950    0.7710   -1.0280 hc        1 MOL     -0.049333
    175 H84        -2.4500    1.5070    1.4120 hc        1 MOL     -0.052682
    176 H85        -1.7400    2.9440    0.9400 hc        1 MOL     -0.052682
    177 N15        -5.0260    1.6730   -2.7320 n         1 MOL     -0.155524
    178 C54        -5.7850    1.8150   -4.0160 c3        1 MOL     -0.243860
    179 H86        -5.1130    2.1700   -4.7970 h1        1 MOL      0.101650
    180 H87        -6.1980    0.8480   -4.3040 h1        1 MOL      0.101650
    181 H88        -6.5950    2.5320   -3.8830 h1        1 MOL      0.101650
    182 H89        -5.0600    0.7450   -2.3400 hn        1 MOL      0.187673
    183 Ca1         1.9300   -0.6830    1.3550 Ca        1 MOL      1.793657
    184 O25         0.8680   -3.1890    1.4890 oh        1 MOL     -0.915763
    185 H90         0.3320   -3.2390    2.2770 ho        1 MOL      0.406146
    186 H91         1.5390   -3.8590    1.6000 ho        1 MOL      0.406146
    187 O26         0.3710   -0.3740    3.4040 oh        1 MOL     -0.915763
    188 H92         0.8780    0.0580    4.0930 ho        1 MOL      0.406146
    189 H93        -0.5480   -0.2270    3.6540 ho        1 MOL      0.406146
@<TRIPOS>BOND
     1    1    2 1   
     2    1    4 1   
     3    1    5 1   
     4    1    6 1   
     5    2    3 2   
     6    2    7 1   
     7    7    8 1   
     8    7   15 1   
     9    8    9 1   
    10    8   11 1   
    11    8   16 1   
    12    9   10 2   
    13    9   19 1   
    14   11   12 1   
    15   11   17 1   
    16   11   18 1   
    17   12   13 1   
    18   12   14 1   
    19   19   20 1   
    20   19   28 1   
    21   20   21 1   
    22   20   23 1   
    23   20   29 1   
    24   21   22 2   
    25   21   41 1   
    26   23   24 1   
    27   23   30 1   
    28   23   31 1   
    29   24   25 1   
    30   24   32 1   
    31   24   33 1   
    32   25   26 1   
    33   25   34 1   
    34   25   35 1   
    35   26   27 1   
    36   26   36 1   
    37   26   37 1   
    38   27   38 1   
    39   27   39 1   
    40   27   40 1   
    41   41   42 1   
    42   41   49 1   
    43   42   43 1   
    44   42   45 1   
    45   42   50 1   
    46   43   44 2   
    47   43   53 1   
    48   45   46 1   
    49   45   51 1   
    50   45   52 1   
    51   46   47 1   
    52   46   48 1   
    53   53   54 1   
    54   53   57 1   
    55   54   55 1   
    56   54   58 1   
    57   54   59 1   
    58   55   56 2   
    59   55   60 1   
    60   60   61 1   
    61   60   68 1   
    62   61   62 1   
    63   61   64 1   
    64   61   69 1   
    65   62   63 2   
    66   62   72 1   
    67   64   65 1   
    68   64   70 1   
    69   64   71 1   
    70   65   66 1   
    71   65   67 1   
    72   72   73 1   
    73   72   76 1   
    74   73   74 1   
    75   73   77 1   
    76   73   78 1   
    77   74   75 2   
    78   74   79 1   
    79   79   80 1   
    80   79   86 1   
    81   80   81 1   
    82   80   83 1   
    83   80   87 1   
    84   81   82 2   
    85   81   93 1   
    86   83   84 1   
    87   83   85 1   
    88   83   88 1   
    89   84   90 1   
    90   84   91 1   
    91   84   92 1   
    92   85   89 1   
    93   93   94 1   
    94   93  101 1   
    95   94   95 1   
    96   94   97 1   
    97   94  102 1   
    98   95   96 2   
    99   95  112 1   
   100   97   98 1   
   101   97   99 1   
   102   97  103 1   
   103   98  100 1   
   104   98  104 1   
   105   98  105 1   
   106   99  106 1   
   107   99  107 1   
   108   99  108 1   
   109  100  109 1   
   110  100  110 1   
   111  100  111 1   
   112  112  113 1   
   113  112  119 1   
   114  113  114 1   
   115  113  116 1   
   116  113  120 1   
   117  114  115 2   
   118  114  126 1   
   119  116  117 1   
   120  116  118 1   
   121  116  121 1   
   122  117  123 1   
   123  117  124 1   
   124  117  125 1   
   125  118  122 1   
   126  126  127 1   
   127  126  133 1   
   128  127  128 1   
   129  127  130 1   
   130  127  134 1   
   131  128  129 2   
   132  128  140 1   
   133  130  131 1   
   134  130  132 1   
   135  130  135 1   
   136  131  137 1   
   137  131  138 1   
   138  131  139 1   
   139  132  136 1   
   140  140  141 1   
   141  140  149 1   
   142  141  142 1   
   143  141  144 1   
   144  141  150 1   
   145  142  143 2   
   146  142  162 1   
   147  144  145 1   
   148  144  151 1   
   149  144  152 1   
   150  145  146 1   
   151  145  153 1   
   152  145  154 1   
   153  146  147 1   
   154  146  155 1   
   155  146  156 1   
   156  147  148 1   
   157  147  157 1   
   158  147  158 1   
   159  148  159 1   
   160  148  160 1   
   161  148  161 1   
   162  162  163 1   
   163  162  171 1   
   164  163  164 1   
   165  163  166 1   
   166  163  172 1   
   167  164  165 2   
   168  164  177 1   
   169  166  167 1   
   170  166  173 1   
   171  166  174 1   
   172  167  168 1   
   173  167  175 1   
   174  167  176 1   
   175  168  169 1   
   176  168  170 1   
   177  177  178 1   
   178  177  182 1   
   179  178  179 1   
   180  178  180 1   
   181  178  181 1   
   182  184  185 1   
   183  184  186 1   
   184  187  188 1   
   185  187  189 1   
@<TRIPOS>SUBSTRUCTURE
     1 MOL         1 TEMP              0 ****  ****    0 ROOT
