@<TRIPOS>MOLECULE
MOL
  186   183     1     0     0
SMALL
resp


@<TRIPOS>ATOM
      1 C1          0.9410    3.9720   -3.8420 c3        1 MOL     -0.261314
      2 C2          1.5240    3.4020   -2.5480 c         1 MOL      0.628343
      3 O1          0.9860    3.7000   -1.4920 o         1 MOL     -0.584975
      4 H1         -0.0260    4.4300   -3.6330 hc        1 MOL      0.061008
      5 H2          1.6190    4.7240   -4.2460 hc        1 MOL      0.061008
      6 H3          0.8140    3.1690   -4.5680 hc        1 MOL      0.061008
      7 N1          2.5060    2.5600   -2.6410 n         1 MOL     -0.488165
      8 C3          3.3650    1.9620   -1.6270 c3        1 MOL      0.040124
      9 C4          4.2530    2.9290   -0.8130 c         1 MOL      0.448097
     10 O2          5.4440    2.7840   -0.6700 o         1 MOL     -0.446477
     11 C5          4.0980    0.7010   -2.2750 c3        1 MOL     -0.142473
     12 C6          4.5100   -0.4060   -1.3130 c         1 MOL      0.743349
     13 O3          3.9550   -0.5280   -0.2180 o         1 MOL     -0.689010
     14 O4          5.3900   -1.2730   -1.6210 o         1 MOL     -0.689010
     15 H4          2.7210    2.3220   -3.6020 hn        1 MOL      0.289579
     16 H5          2.6660    1.5300   -0.9130 h1        1 MOL      0.174530
     17 H6          4.8830    0.9060   -3.0050 hc        1 MOL      0.033361
     18 H7          3.3490    0.1420   -2.8430 hc        1 MOL      0.033361
     19 N2          3.6150    3.9570   -0.3210 n         1 MOL     -0.343307
     20 C7          4.2570    5.0210    0.5170 c3        1 MOL     -0.055406
     21 C8          4.7270    4.4730    1.8260 c         1 MOL      0.497631
     22 O5          5.8220    4.8340    2.3230 o         1 MOL     -0.554284
     23 C9          3.2670    6.1750    0.7910 c3        1 MOL     -0.227005
     24 C10         2.8950    7.0880   -0.4040 c3        1 MOL      0.174066
     25 C11         4.0270    7.9940   -0.8280 c3        1 MOL     -0.341700
     26 C12         3.3080    8.8690   -1.8940 c3        1 MOL      0.110143
     27 N3          4.3500    9.5960   -2.6080 n4        1 MOL     -0.184963
     28 H8          2.6240    3.9680   -0.5040 hn        1 MOL      0.301475
     29 H9          5.1600    5.3780    0.0250 h1        1 MOL      0.077395
     30 H10         3.5690    6.7240    1.6800 hc        1 MOL      0.096417
     31 H11         2.3330    5.7010    1.0890 hc        1 MOL      0.096417
     32 H12         1.9360    7.5190   -0.1070 hc        1 MOL      0.004874
     33 H13         2.7240    6.3650   -1.1980 hc        1 MOL      0.004874
     34 H14         4.8350    7.4590   -1.3360 hc        1 MOL      0.129470
     35 H15         4.4450    8.5220    0.0220 hc        1 MOL      0.129470
     36 H16         2.6560    9.6250   -1.4510 hx        1 MOL      0.062557
     37 H17         2.7470    8.2780   -2.6210 hx        1 MOL      0.062557
     38 H18         3.8830   10.2910   -3.1690 hn        1 MOL      0.276102
     39 H19         4.9120   10.0240   -1.8900 hn        1 MOL      0.276102
     40 H20         5.0480    9.0860   -3.1350 hn        1 MOL      0.276102
     41 N4          4.0370    3.4330    2.2970 n         1 MOL     -0.414807
     42 C13         4.4680    2.6240    3.4370 c3        1 MOL      0.066334
     43 C14         5.4740    1.6270    3.0620 c         1 MOL      0.523723
     44 O6          6.2870    1.2710    3.8920 o         1 MOL     -0.572461
     45 C15         3.2070    1.9330    3.9880 c3        1 MOL     -0.134345
     46 C16         2.4500    1.0520    3.0410 c         1 MOL      0.805425
     47 O7          2.6250    1.2280    1.8610 o         1 MOL     -0.748018
     48 O8          1.6550    0.1660    3.4000 o         1 MOL     -0.748018
     49 H21         3.2350    3.0880    1.7730 hn        1 MOL      0.291269
     50 H22         4.8770    3.2350    4.2380 h1        1 MOL      0.078615
     51 H23         2.4700    2.6440    4.3820 hc        1 MOL      0.024789
     52 H24         3.4600    1.3340    4.8610 hc        1 MOL      0.024789
     53 N5          5.4950    1.0500    1.8650 n         1 MOL      0.138359
     54 C17         6.7480    0.4740    1.2880 c3        1 MOL     -0.151878
     55 C18         7.0170   -1.0590    1.5860 c         1 MOL      0.539644
     56 O9          7.8300   -1.4440    2.4620 o         1 MOL     -0.521801
     57 H25         4.7460    1.2760    1.2260 hn        1 MOL     -0.198167
     58 H26         7.5670    1.0190    1.7690 h1        1 MOL      0.077978
     59 H27         6.7260    0.6370    0.2100 h1        1 MOL      0.077978
     60 N6          6.3160   -1.9870    0.8700 n         1 MOL     -0.479220
     61 C19         6.3240   -3.4020    1.2930 c3        1 MOL      0.023873
     62 C20         6.2010   -4.4550    0.1970 c         1 MOL      0.474047
     63 O10         6.5660   -5.5670    0.4720 o         1 MOL     -0.552132
     64 C21         5.3470   -3.6040    2.4640 c3        1 MOL     -0.292300
     65 C22         3.9770   -2.9900    2.1830 c         1 MOL      0.735364
     66 O11         3.5580   -2.1390    2.9370 o         1 MOL     -0.645877
     67 O12         3.3490   -3.3820    1.1770 o         1 MOL     -0.645877
     68 H28         5.6420   -1.6150    0.2160 hn        1 MOL      0.265815
     69 H29         7.3310   -3.6380    1.6530 h1        1 MOL      0.115323
     70 H30         5.7790   -3.2140    3.3870 hc        1 MOL      0.096827
     71 H31         5.2760   -4.6720    2.6720 hc        1 MOL      0.096827
     72 N7          5.8680   -4.0480   -0.9860 n         1 MOL     -0.244586
     73 C23         5.5250   -4.8410   -2.1940 c3        1 MOL     -0.124471
     74 C24         4.0960   -5.4210   -2.0910 c         1 MOL      0.483514
     75 O13         3.7570   -6.3950   -2.7790 o         1 MOL     -0.561162
     76 H32         5.6880   -3.0540   -1.0000 hn        1 MOL      0.252480
     77 H33         6.1290   -5.7550   -2.2020 h1        1 MOL      0.099001
     78 H34         5.6190   -4.3800   -3.1740 h1        1 MOL      0.099001
     79 N8          3.1020   -4.7620   -1.3720 n         1 MOL     -0.156941
     80 C25         1.6730   -5.0510   -1.4640 c3        1 MOL     -0.164661
     81 C26         0.8030   -3.8390   -1.5290 c         1 MOL      0.612842
     82 O14         1.2280   -2.7970   -1.0070 o         1 MOL     -0.740819
     83 C27         1.2030   -5.9520   -0.3400 c3        1 MOL      0.512970
     84 C28         2.0520   -7.1790   -0.2500 c3        1 MOL     -0.399640
     85 O15         1.2920   -5.2940    0.9650 oh        1 MOL     -0.653865
     86 H35         3.5200   -4.1600   -0.6770 hn        1 MOL      0.143509
     87 H36         1.4830   -5.6640   -2.3480 h1        1 MOL      0.085487
     88 H37         0.1940   -6.3150   -0.5130 h1        1 MOL     -0.035851
     89 H38         2.0670   -4.7300    0.8900 ho        1 MOL      0.340338
     90 H39         1.7440   -7.7820    0.5970 hc        1 MOL      0.094809
     91 H40         1.8710   -7.7200   -1.1700 hc        1 MOL      0.094809
     92 H41         3.1140   -6.9900   -0.0290 hc        1 MOL      0.094809
     93 N9         -0.3320   -3.8790   -2.2090 n         1 MOL     -0.572574
     94 C29        -1.2260   -2.7260   -2.3620 c3        1 MOL      0.074459
     95 C30        -2.6460   -3.1590   -1.8570 c         1 MOL      0.338545
     96 O16        -3.3300   -4.1760   -2.2960 o         1 MOL     -0.551255
     97 C31        -1.1660   -1.9080   -3.6600 c3        1 MOL      0.130681
     98 C32         0.2250   -1.1960   -3.7300 c3        1 MOL      0.006888
     99 C33        -2.3640   -0.9590   -3.9540 c3        1 MOL     -0.124281
    100 C34         0.5060   -0.5480   -5.0770 c3        1 MOL     -0.250860
    101 H42        -0.6440   -4.7640   -2.5890 hn        1 MOL      0.319936
    102 H43        -1.0000   -1.9170   -1.6620 h1        1 MOL      0.179646
    103 H44        -1.1610   -2.6490   -4.4690 hc        1 MOL      0.004794
    104 H45         1.0990   -1.7610   -3.4030 hc        1 MOL      0.063301
    105 H46         0.1180   -0.3420   -3.0690 hc        1 MOL      0.063301
    106 H47        -2.2130   -0.5440   -4.9480 hc        1 MOL     -0.007344
    107 H48        -3.2940   -1.5170   -3.7960 hc        1 MOL     -0.007344
    108 H49        -2.5060   -0.1650   -3.2220 hc        1 MOL     -0.007344
    109 H50         1.4860   -0.0840   -5.0050 hc        1 MOL      0.059720
    110 H51         0.3860   -1.2380   -5.9230 hc        1 MOL      0.059720
    111 H52        -0.1670    0.2850   -5.2370 hc        1 MOL      0.059720
    112 N10        -3.1830   -2.3550   -0.9510 n         1 MOL      0.030281
    113 C35        -4.5650   -2.5160   -0.4400 c3        1 MOL     -0.029498
    114 C36        -5.5600   -1.6050   -1.0560 c         1 MOL      0.447057
    115 O17        -5.2270   -0.6060   -1.7740 o         1 MOL     -0.428889
    116 C37        -4.5420   -2.2530    1.0860 c3        1 MOL     -0.011335
    117 C38        -3.6280   -3.2310    1.8450 c3        1 MOL     -0.421721
    118 O18        -4.0790   -0.9190    1.3530 oh        1 MOL     -0.240441
    119 H53        -2.5270   -1.6740   -0.5760 hn        1 MOL      0.150170
    120 H54        -4.9960   -3.5160   -0.5550 h1        1 MOL      0.082732
    121 H55        -5.5020   -2.3430    1.5960 h1        1 MOL      0.056764
    122 H56        -4.0120   -0.8400    2.3010 ho        1 MOL      0.337800
    123 H57        -4.0150   -3.4700    2.8390 hc        1 MOL      0.118594
    124 H58        -3.4680   -4.1230    1.2530 hc        1 MOL      0.118594
    125 H59        -2.6280   -2.7930    1.9130 hc        1 MOL      0.118594
    126 N11        -6.8670   -1.7560   -0.6590 n         1 MOL     -0.388649
    127 C39        -7.9190   -0.7970   -0.9710 c3        1 MOL     -0.131036
    128 C40        -7.7340    0.5510   -0.2840 c         1 MOL      0.276003
    129 O19        -8.2350    1.5680   -0.7050 o         1 MOL     -0.490382
    130 C41        -9.3320   -1.2420   -0.5400 c3        1 MOL      0.318450
    131 C42        -9.7720   -2.5260   -1.1560 c3        1 MOL     -0.469955
    132 O20        -9.3950   -1.5950    0.7870 oh        1 MOL     -0.607500
    133 H60        -7.0680   -2.5110   -0.0240 hn        1 MOL      0.293074
    134 H61        -8.0170   -0.6330   -2.0420 h1        1 MOL      0.166098
    135 H62       -10.0420   -0.4460   -0.7650 h1        1 MOL      0.042337
    136 H63       -10.2510   -1.3870    1.1750 ho        1 MOL      0.362533
    137 H64       -10.8100   -2.8000   -0.9440 hc        1 MOL      0.133445
    138 H65        -9.6740   -2.4960   -2.2430 hc        1 MOL      0.133445
    139 H66        -9.1640   -3.3320   -0.7510 hc        1 MOL      0.133445
    140 N12        -7.0100    0.6560    0.8290 n         1 MOL      0.020638
    141 C43        -6.6500    1.9320    1.4160 c3        1 MOL     -0.035639
    142 C44        -5.6290    2.7420    0.5690 c         1 MOL      0.320120
    143 O21        -5.8620    3.8990    0.3150 o         1 MOL     -0.460259
    144 C45        -6.2620    1.7240    2.9550 c3        1 MOL     -0.268378
    145 C46        -7.0930    0.8160    3.8560 c3        1 MOL      0.031819
    146 C47        -8.5980    1.1560    3.8610 c3        1 MOL      0.075753
    147 C48        -9.3590    0.1320    4.7090 c3        1 MOL     -0.083637
    148 N13       -10.7850    0.2350    4.5300 n4        1 MOL     -0.266390
    149 H67        -6.6320   -0.1640    1.2930 hn        1 MOL      0.074999
    150 H68        -7.5380    2.5710    1.3860 h1        1 MOL      0.061459
    151 H69        -6.2340    2.7550    3.3210 hc        1 MOL      0.080884
    152 H70        -5.2150    1.4120    2.9860 hc        1 MOL      0.080884
    153 H71        -6.6900    0.8860    4.8650 hc        1 MOL      0.008104
    154 H72        -6.9300   -0.1720    3.4430 hc        1 MOL      0.008104
    155 H73        -9.0910    1.1570    2.8970 hc        1 MOL      0.034842
    156 H74        -8.7750    2.1730    4.2210 hc        1 MOL      0.034842
    157 H75        -9.1320    0.2970    5.7590 hx        1 MOL      0.106790
    158 H76        -9.0550   -0.9020    4.5190 hx        1 MOL      0.106790
    159 H77       -11.1190    1.1310    4.8760 hn        1 MOL      0.259454
    160 H78       -11.0410    0.2660    3.5530 hn        1 MOL      0.259454
    161 H79       -11.2040   -0.5720    4.9740 hn        1 MOL      0.259454
    162 N14        -4.5310    2.1060    0.1530 n         1 MOL     -0.057752
    163 C49        -3.5300    2.7680   -0.7230 c3        1 MOL     -0.368030
    164 C50        -4.0470    3.2550   -2.0460 c         1 MOL      0.510859
    165 O22        -3.7060    4.3560   -2.3880 o         1 MOL     -0.521109
    166 C51        -2.3580    1.7970   -0.8500 c3        1 MOL      0.350939
    167 C52        -1.7690    1.2730    0.4450 c3        1 MOL     -0.396656
    168 C53        -0.6860    0.1950    0.3380 c         1 MOL      0.804663
    169 O23         0.3590    0.4920   -0.1920 o         1 MOL     -0.824500
    170 O24        -0.7490   -0.9410    0.8220 o         1 MOL     -0.824500
    171 H80        -4.3560    1.1500    0.4490 hn        1 MOL      0.217925
    172 H81        -3.1660    3.6360   -0.1670 h1        1 MOL      0.163421
    173 H82        -1.5690    2.3140   -1.3930 hc        1 MOL     -0.017911
    174 H83        -2.7010    0.9440   -1.4310 hc        1 MOL     -0.017911
    175 H84        -2.6430    0.8810    0.9580 hc        1 MOL      0.054766
    176 H85        -1.3160    2.1100    0.9680 hc        1 MOL      0.054766
    177 N15        -4.9980    2.5400   -2.6770 n         1 MOL     -0.087355
    178 C54        -5.6340    3.0580   -3.8230 c3        1 MOL     -0.473051
    179 H86        -6.6470    3.3690   -3.5670 h1        1 MOL      0.152662
    180 H87        -5.0740    3.9180   -4.1920 h1        1 MOL      0.152662
    181 H88        -5.6740    2.2910   -4.5960 h1        1 MOL      0.152662
    182 H89        -5.2430    1.6220   -2.3450 hn        1 MOL      0.195487
    183 Ca1         1.8510   -1.1750    1.0100 Ca        1 MOL      1.800464
    184 O25         0.2160   -2.4390    2.7000 oh        1 MOL     -0.774520
    185 H90        -0.2140   -3.0010    3.3500 ho        1 MOL      0.388615
    186 H91        -0.4980   -2.0670    2.1840 ho        1 MOL      0.388615
@<TRIPOS>BOND
     1    1    2 1   
     2    1    4 1   
     3    1    5 1   
     4    1    6 1   
     5    2    3 2   
     6    2    7 1   
     7    7    8 1   
     8    7   15 1   
     9    8    9 1   
    10    8   11 1   
    11    8   16 1   
    12    9   10 2   
    13    9   19 1   
    14   11   12 1   
    15   11   17 1   
    16   11   18 1   
    17   12   13 1   
    18   12   14 1   
    19   19   20 1   
    20   19   28 1   
    21   20   21 1   
    22   20   23 1   
    23   20   29 1   
    24   21   22 2   
    25   21   41 1   
    26   23   24 1   
    27   23   30 1   
    28   23   31 1   
    29   24   25 1   
    30   24   32 1   
    31   24   33 1   
    32   25   26 1   
    33   25   34 1   
    34   25   35 1   
    35   26   27 1   
    36   26   36 1   
    37   26   37 1   
    38   27   38 1   
    39   27   39 1   
    40   27   40 1   
    41   41   42 1   
    42   41   49 1   
    43   42   43 1   
    44   42   45 1   
    45   42   50 1   
    46   43   44 2   
    47   43   53 1   
    48   45   46 1   
    49   45   51 1   
    50   45   52 1   
    51   46   47 1   
    52   46   48 1   
    53   53   54 1   
    54   53   57 1   
    55   54   55 1   
    56   54   58 1   
    57   54   59 1   
    58   55   56 2   
    59   55   60 1   
    60   60   61 1   
    61   60   68 1   
    62   61   62 1   
    63   61   64 1   
    64   61   69 1   
    65   62   63 2   
    66   62   72 1   
    67   64   65 1   
    68   64   70 1   
    69   64   71 1   
    70   65   66 1   
    71   65   67 1   
    72   72   73 1   
    73   72   76 1   
    74   73   74 1   
    75   73   77 1   
    76   73   78 1   
    77   74   75 2   
    78   74   79 1   
    79   79   80 1   
    80   79   86 1   
    81   80   81 1   
    82   80   83 1   
    83   80   87 1   
    84   81   82 2   
    85   81   93 1   
    86   83   84 1   
    87   83   85 1   
    88   83   88 1   
    89   84   90 1   
    90   84   91 1   
    91   84   92 1   
    92   85   89 1   
    93   93   94 1   
    94   93  101 1   
    95   94   95 1   
    96   94   97 1   
    97   94  102 1   
    98   95   96 2   
    99   95  112 1   
   100   97   98 1   
   101   97   99 1   
   102   97  103 1   
   103   98  100 1   
   104   98  104 1   
   105   98  105 1   
   106   99  106 1   
   107   99  107 1   
   108   99  108 1   
   109  100  109 1   
   110  100  110 1   
   111  100  111 1   
   112  112  113 1   
   113  112  119 1   
   114  113  114 1   
   115  113  116 1   
   116  113  120 1   
   117  114  115 2   
   118  114  126 1   
   119  116  117 1   
   120  116  118 1   
   121  116  121 1   
   122  117  123 1   
   123  117  124 1   
   124  117  125 1   
   125  118  122 1   
   126  126  127 1   
   127  126  133 1   
   128  127  128 1   
   129  127  130 1   
   130  127  134 1   
   131  128  129 2   
   132  128  140 1   
   133  130  131 1   
   134  130  132 1   
   135  130  135 1   
   136  131  137 1   
   137  131  138 1   
   138  131  139 1   
   139  132  136 1   
   140  140  141 1   
   141  140  149 1   
   142  141  142 1   
   143  141  144 1   
   144  141  150 1   
   145  142  143 2   
   146  142  162 1   
   147  144  145 1   
   148  144  151 1   
   149  144  152 1   
   150  145  146 1   
   151  145  153 1   
   152  145  154 1   
   153  146  147 1   
   154  146  155 1   
   155  146  156 1   
   156  147  148 1   
   157  147  157 1   
   158  147  158 1   
   159  148  159 1   
   160  148  160 1   
   161  148  161 1   
   162  162  163 1   
   163  162  171 1   
   164  163  164 1   
   165  163  166 1   
   166  163  172 1   
   167  164  165 2   
   168  164  177 1   
   169  166  167 1   
   170  166  173 1   
   171  166  174 1   
   172  167  168 1   
   173  167  175 1   
   174  167  176 1   
   175  168  169 1   
   176  168  170 1   
   177  177  178 1   
   178  177  182 1   
   179  178  179 1   
   180  178  180 1   
   181  178  181 1   
   182  184  185 1   
   183  184  186 1   
@<TRIPOS>SUBSTRUCTURE
     1 MOL         1 TEMP              0 ****  ****    0 ROOT
