@<TRIPOS>MOLECULE
MOL
  175   173     1     0     0
SMALL
resp


@<TRIPOS>ATOM
      1 C1          0.5230    3.3880    5.7870 c3        1 MOL     -0.322230
      2 C2         -0.0430    3.3440    4.3880 c         1 MOL      0.681526
      3 O1          0.7390    3.6490    3.4840 o         1 MOL     -0.546501
      4 H1         -0.0640    2.7380    6.4360 hc        1 MOL      0.077142
      5 H2          1.5580    3.0480    5.7710 hc        1 MOL      0.077142
      6 H3          0.4820    4.4100    6.1640 hc        1 MOL      0.077142
      7 N1         -1.3410    3.1450    4.1300 n         1 MOL     -0.576602
      8 C3         -2.0580    3.0890    2.8520 c3        1 MOL      0.181214
      9 C4         -2.3110    4.4520    2.1620 c         1 MOL      0.660510
     10 O2         -2.8360    5.3170    2.9190 o         1 MOL     -0.603423
     11 C5         -3.4630    2.4050    3.0870 c3        1 MOL     -0.445622
     12 C6         -4.0690    2.1760    1.7700 c         1 MOL      0.813474
     13 O3         -5.2970    2.2510    1.7570 o         1 MOL     -0.666602
     14 O4         -3.3840    1.8370    0.7740 o         1 MOL     -0.666602
     15 H4         -1.8810    2.9600    4.9680 hn        1 MOL      0.303962
     16 H5         -1.5050    2.4510    2.1710 h1        1 MOL      0.027425
     17 H6         -4.1470    3.0520    3.6370 hc        1 MOL      0.095236
     18 H7         -3.3060    1.4860    3.6460 hc        1 MOL      0.095236
     19 N2         -2.1300    4.5790    0.8570 n         1 MOL     -0.693781
     20 C7         -2.4550    5.7790    0.0280 c3        1 MOL      0.508718
     21 C8         -3.3950    5.4330   -1.1810 c         1 MOL      0.243965
     22 O5         -3.6500    6.3580   -1.9460 o         1 MOL     -0.547790
     23 C9         -1.1170    6.4280   -0.4020 c3        1 MOL     -0.315573
     24 H8         -2.0020    3.7190    0.3540 hn        1 MOL      0.370019
     25 H9         -2.9920    6.4810    0.6680 h1        1 MOL     -0.020012
     26 H10        -0.6460    5.8060   -1.1500 hc        1 MOL      0.074560
     27 H11        -1.3230    7.4490   -0.7420 hc        1 MOL      0.074560
     28 H12        -0.5310    6.6010    0.5020 hc        1 MOL      0.074560
     29 N3         -3.7960    4.1990   -1.4130 n         1 MOL     -0.047822
     30 C10        -4.5990    3.7300   -2.5460 c3        1 MOL      0.033390
     31 C11        -5.9350    2.9360   -2.3300 c         1 MOL      0.371381
     32 O6         -6.8270    3.0660   -3.1800 o         1 MOL     -0.557397
     33 C12        -3.7160    2.9650   -3.5100 c3        1 MOL     -0.121200
     34 C13        -2.9670    1.7970   -2.9140 c         1 MOL      0.678681
     35 O7         -1.8090    1.6250   -3.2700 o         1 MOL     -0.688313
     36 O8         -3.5210    1.0720   -2.0750 o         1 MOL     -0.688313
     37 H13        -3.6180    3.4720   -0.7330 hn        1 MOL      0.060981
     38 H14        -4.9450    4.6060   -3.0890 h1        1 MOL      0.063060
     39 H15        -2.9420    3.6350   -3.8850 hc        1 MOL      0.031089
     40 H16        -4.2390    2.6290   -4.4100 hc        1 MOL      0.031089
     41 N4         -6.0610    2.2310   -1.2080 n         1 MOL     -0.087273
     42 C14        -7.3060    1.4680   -0.8030 c3        1 MOL     -0.222023
     43 C15        -7.3580   -0.0100   -1.1850 c         1 MOL      0.555452
     44 O9         -8.3730   -0.6330   -0.9290 o         1 MOL     -0.622685
     45 H17        -5.3000    2.2000   -0.5400 hn        1 MOL      0.043599
     46 H18        -8.1470    2.0680   -1.1500 h1        1 MOL      0.120219
     47 H19        -7.4180    1.4790    0.2880 h1        1 MOL      0.120219
     48 N5         -6.3530   -0.5370   -1.8250 n         1 MOL     -0.330044
     49 C16        -6.3520   -1.9440   -2.2800 c3        1 MOL      0.079405
     50 C17        -6.4840   -3.0240   -1.2160 c         1 MOL      0.460997
     51 O10        -6.6310   -4.1960   -1.5710 o         1 MOL     -0.548372
     52 C18        -5.1370   -2.1630   -3.1960 c3        1 MOL     -0.199042
     53 C19        -3.7790   -1.9970   -2.4950 c         1 MOL      0.726660
     54 N6         -2.6890   -2.1170   -3.2090 n         1 MOL     -0.600963
     55 O11        -3.7070   -1.8530   -1.3160 o         1 MOL     -0.867877
     56 H20        -5.5650    0.0390   -2.0850 hn        1 MOL      0.243096
     57 H21        -7.2610   -2.1210   -2.8620 h1        1 MOL      0.074628
     58 H22        -5.1910   -1.5410   -4.0990 hc        1 MOL      0.058996
     59 H23        -5.3470   -3.1830   -3.5140 hc        1 MOL      0.058996
     60 H24        -2.8090   -2.2930   -4.1960 hn        1 MOL      0.298047
     61 H25        -1.7400   -2.1210   -2.8570 hn        1 MOL      0.298047
     62 N7         -6.4170   -2.6590    0.0510 n         1 MOL     -0.161844
     63 C20        -6.5380   -3.4730    1.2730 c3        1 MOL     -0.294313
     64 C21        -5.2360   -4.1860    1.7070 c         1 MOL      0.621434
     65 O12        -5.3180   -5.0430    2.5310 o         1 MOL     -0.556045
     66 H26        -6.3500   -1.6780    0.2500 hn        1 MOL      0.254151
     67 H27        -7.2660   -4.2650    1.1070 h1        1 MOL      0.122445
     68 H28        -6.8820   -2.8530    2.1010 h1        1 MOL      0.122445
     69 N8         -4.0450   -3.8200    1.0860 n         1 MOL     -0.468896
     70 C22        -2.7450   -4.4450    1.2620 c3        1 MOL     -0.060607
     71 C23        -1.5500   -3.5390    1.2460 c         1 MOL      0.444530
     72 O13        -1.5160   -2.5770    0.4460 o         1 MOL     -0.429365
     73 C24        -2.5550   -5.3880    0.1340 c3        1 MOL      0.526261
     74 C25        -3.5310   -6.6350    0.1450 c3        1 MOL     -0.591220
     75 O14        -2.6680   -4.8430   -1.1940 oh        1 MOL     -0.589937
     76 H29        -4.0700   -3.0970    0.3770 hn        1 MOL      0.405962
     77 H30        -2.8410   -4.9570    2.2190 h1        1 MOL      0.063121
     78 H31        -1.5690   -5.8380    0.2530 h1        1 MOL     -0.053448
     79 H32        -2.0940   -4.0800   -1.3240 ho        1 MOL      0.341453
     80 H33        -4.3510   -6.4180   -0.5240 hc        1 MOL      0.153421
     81 H34        -2.9180   -7.4330   -0.2740 hc        1 MOL      0.153421
     82 H35        -3.9030   -6.8400    1.1520 hc        1 MOL      0.153421
     83 N9         -0.4620   -3.8780    1.8660 n         1 MOL     -0.441970
     84 C26         0.7870   -3.0390    1.8110 c3        1 MOL      0.045683
     85 C27         1.4670   -3.1200    0.4240 c         1 MOL      0.622073
     86 O15         1.7230   -4.2380    0.0410 o         1 MOL     -0.582611
     87 C28         1.7130   -3.4670    2.9820 c3        1 MOL      0.051488
     88 C29         1.2170   -2.8780    4.3500 c3        1 MOL      0.045038
     89 C30         3.1950   -3.1890    2.7550 c3        1 MOL     -0.183502
     90 C31         1.6110   -3.7760    5.5100 c3        1 MOL     -0.067212
     91 H36        -0.4380   -4.7420    2.4020 hn        1 MOL      0.251944
     92 H37         0.3170   -2.0780    2.0040 h1        1 MOL     -0.011739
     93 H38         1.6080   -4.5500    2.9680 hc        1 MOL      0.035146
     94 H39         0.1340   -2.7120    4.3600 hc        1 MOL      0.000960
     95 H40         1.5770   -1.8670    4.5350 hc        1 MOL      0.000960
     96 H41         3.5000   -3.7210    1.8580 hc        1 MOL      0.037833
     97 H42         3.3700   -2.1170    2.7620 hc        1 MOL      0.037833
     98 H43         3.8190   -3.5000    3.5950 hc        1 MOL      0.037833
     99 H44         1.2300   -4.7990    5.4220 hc        1 MOL      0.005773
    100 H45         2.6880   -3.8970    5.6280 hc        1 MOL      0.005773
    101 H46         1.1590   -3.3660    6.4110 hc        1 MOL      0.005773
    102 N10         1.7550   -1.9620   -0.1620 n         1 MOL     -0.441816
    103 C32         2.5740   -1.9130   -1.3380 c3        1 MOL      0.071661
    104 C33         3.9940   -1.4370   -0.9350 c         1 MOL      0.368623
    105 O16         4.0730   -0.7580    0.0540 o         1 MOL     -0.299092
    106 C34         1.9390   -0.9460   -2.3770 c3        1 MOL     -0.260080
    107 C35         0.5270   -1.3040   -2.7210 c         1 MOL      0.763887
    108 O17         0.3290   -1.8650   -3.8560 o         1 MOL     -0.676786
    109 O18        -0.4290   -0.9850   -1.9320 o         1 MOL     -0.676786
    110 H47         1.5770   -1.0910    0.3000 hn        1 MOL      0.329353
    111 H48         2.5800   -2.8930   -1.8200 h1        1 MOL      0.057507
    112 H49         2.6320   -0.9400   -3.2140 hc        1 MOL      0.054507
    113 H50         1.9850    0.0350   -1.9030 hc        1 MOL      0.054507
    114 N11         5.0970   -1.7950   -1.6150 n         1 MOL     -0.543282
    115 C36         6.4560   -1.3820   -1.3260 c3        1 MOL      0.199347
    116 C37         6.7180    0.0360   -0.9680 c         1 MOL      0.333073
    117 O19         7.5950    0.2320   -0.1010 o         1 MOL     -0.483686
    118 C38         7.2650   -1.9070   -2.4420 c3        1 MOL     -0.157117
    119 C39         8.6980   -1.6150   -2.2770 ca        1 MOL      0.111427
    120 C40         9.3780   -0.5860   -3.0300 ca        1 MOL     -0.260853
    121 C41         9.4550   -2.2780   -1.2340 ca        1 MOL     -0.260853
    122 C42        10.7460   -0.3510   -2.8140 ca        1 MOL      0.051082
    123 C43        10.8470   -2.0220   -1.0620 ca        1 MOL      0.051082
    124 C44        11.5130   -1.0950   -1.9550 ca        1 MOL     -0.294499
    125 H51         4.8580   -2.4430   -2.3470 hn        1 MOL      0.309258
    126 H52         6.7140   -1.9390   -0.4220 h1        1 MOL      0.090324
    127 H53         6.8670   -1.5180   -3.3780 hc        1 MOL      0.066137
    128 H54         7.1100   -2.9830   -2.5280 hc        1 MOL      0.066137
    129 H55         8.8440    0.0220   -3.7520 ha        1 MOL      0.131639
    130 H56         8.8890   -2.9360   -0.5950 ha        1 MOL      0.131639
    131 H57        11.1170    0.4940   -3.3690 ha        1 MOL      0.075407
    132 H58        11.4270   -2.6450   -0.4040 ha        1 MOL      0.075407
    133 H59        12.5310   -0.8040   -1.7360 ha        1 MOL      0.141219
    134 N12         6.1330    1.0260   -1.6420 n         1 MOL      0.083935
    135 C45         6.4400    2.3900   -1.2600 c3        1 MOL      0.010529
    136 C46         5.8440    2.7070    0.1140 c         1 MOL      0.241375
    137 O20         6.5370    3.3310    0.9520 o         1 MOL     -0.490037
    138 C47         5.9310    3.3310   -2.3570 c3        1 MOL      0.025036
    139 C48         5.5100    2.3520   -3.5110 c3        1 MOL     -0.084395
    140 C49         5.3440    1.0040   -2.8500 c3        1 MOL     -0.140533
    141 H60         7.5230    2.4480   -1.2000 h1        1 MOL      0.053785
    142 H61         5.1000    3.9230   -1.9910 hc        1 MOL      0.018202
    143 H62         6.7170    3.9830   -2.7430 hc        1 MOL      0.018202
    144 H63         4.6040    2.6790   -4.0300 hc        1 MOL      0.045103
    145 H64         6.3520    2.3090   -4.2080 hc        1 MOL      0.045103
    146 H65         4.3160    0.8710   -2.4840 h1        1 MOL      0.071259
    147 H66         5.5590    0.1380   -3.4680 h1        1 MOL      0.071259
    148 N13         4.7410    2.0200    0.4660 n         1 MOL     -0.014964
    149 C50         4.0530    2.0930    1.7680 c3        1 MOL     -0.134797
    150 C51         4.9150    1.2870    2.8160 c         1 MOL      0.413024
    151 O21         5.1830    1.7570    3.9550 o         1 MOL     -0.553322
    152 C52         2.6680    1.5240    1.6410 c3        1 MOL      0.099456
    153 C53         1.8630    2.2710    0.4740 c3        1 MOL     -0.221574
    154 C54         0.5320    1.5660    0.2800 c         1 MOL      0.702832
    155 O22        -0.4560    2.2200   -0.1850 o         1 MOL     -0.727013
    156 O23         0.3200    0.4080    0.6660 o         1 MOL     -0.727013
    157 H67         4.2410    1.5580   -0.2790 hn        1 MOL      0.100604
    158 H68         4.1240    3.1180    2.1190 h1        1 MOL      0.119092
    159 H69         2.1980    1.7250    2.6040 hc        1 MOL     -0.018216
    160 H70         2.7490    0.4460    1.4820 hc        1 MOL     -0.018216
    161 H71         2.3860    2.1710   -0.4860 hc        1 MOL      0.086111
    162 H72         1.6670    3.3110    0.7060 hc        1 MOL      0.086111
    163 N14         5.5520    0.1510    2.4420 n         1 MOL      0.005102
    164 C55         6.5790   -0.5800    3.2460 c3        1 MOL     -0.267252
    165 H73         6.0920   -1.0960    4.0730 h1        1 MOL      0.096076
    166 H74         7.0870   -1.3070    2.6130 h1        1 MOL      0.096076
    167 H75         7.3060    0.1310    3.6400 h1        1 MOL      0.096076
    168 H76         5.3570   -0.1470    1.4960 hn        1 MOL      0.031828
    169 Ca1        -2.0580   -0.0250   -0.2920 Ca        1 MOL      1.725872
    170 O24        -1.2480   -0.1910    2.8870 oh        1 MOL     -0.754909
    171 H77        -0.4350   -0.1270    2.3820 ho        1 MOL      0.368726
    172 H78        -1.0420    0.2050    3.7350 ho        1 MOL      0.368726
    173 O25        -3.7450   -1.0010    1.6390 oh        1 MOL     -0.754909
    174 H79        -4.6400   -0.7870    1.8820 ho        1 MOL      0.368726
    175 H80        -3.2310   -0.8580    2.4300 ho        1 MOL      0.368726
@<TRIPOS>BOND
     1    1    2 1   
     2    1    4 1   
     3    1    5 1   
     4    1    6 1   
     5    2    3 2   
     6    2    7 1   
     7    7    8 1   
     8    7   15 1   
     9    8    9 1   
    10    8   11 1   
    11    8   16 1   
    12    9   10 2   
    13    9   19 1   
    14   11   12 1   
    15   11   17 1   
    16   11   18 1   
    17   12   13 1   
    18   12   14 1   
    19   19   20 1   
    20   19   24 1   
    21   20   21 1   
    22   20   23 1   
    23   20   25 1   
    24   21   22 2   
    25   21   29 1   
    26   23   26 1   
    27   23   27 1   
    28   23   28 1   
    29   29   30 1   
    30   29   37 1   
    31   30   31 1   
    32   30   33 1   
    33   30   38 1   
    34   31   32 2   
    35   31   41 1   
    36   33   34 1   
    37   33   39 1   
    38   33   40 1   
    39   34   35 1   
    40   34   36 1   
    41   41   42 1   
    42   41   45 1   
    43   42   43 1   
    44   42   46 1   
    45   42   47 1   
    46   43   44 2   
    47   43   48 1   
    48   48   49 1   
    49   48   56 1   
    50   49   50 1   
    51   49   52 1   
    52   49   57 1   
    53   50   51 2   
    54   50   62 1   
    55   52   53 1   
    56   52   58 1   
    57   52   59 1   
    58   53   54 1   
    59   53   55 2   
    60   54   60 1   
    61   54   61 1   
    62   62   63 1   
    63   62   66 1   
    64   63   64 1   
    65   63   67 1   
    66   63   68 1   
    67   64   65 2   
    68   64   69 1   
    69   69   70 1   
    70   69   76 1   
    71   70   71 1   
    72   70   73 1   
    73   70   77 1   
    74   71   72 2   
    75   71   83 1   
    76   73   74 1   
    77   73   75 1   
    78   73   78 1   
    79   74   80 1   
    80   74   81 1   
    81   74   82 1   
    82   75   79 1   
    83   83   84 1   
    84   83   91 1   
    85   84   85 1   
    86   84   87 1   
    87   84   92 1   
    88   85   86 2   
    89   85  102 1   
    90   87   88 1   
    91   87   89 1   
    92   87   93 1   
    93   88   90 1   
    94   88   94 1   
    95   88   95 1   
    96   89   96 1   
    97   89   97 1   
    98   89   98 1   
    99   90   99 1   
   100   90  100 1   
   101   90  101 1   
   102  102  103 1   
   103  102  110 1   
   104  103  104 1   
   105  103  106 1   
   106  103  111 1   
   107  104  105 2   
   108  104  114 1   
   109  106  107 1   
   110  106  112 1   
   111  106  113 1   
   112  107  108 1   
   113  107  109 1   
   114  114  115 1   
   115  114  125 1   
   116  115  116 1   
   117  115  118 1   
   118  115  126 1   
   119  116  117 2   
   120  116  134 1   
   121  118  119 1   
   122  118  127 1   
   123  118  128 1   
   124  119  120 ar  
   125  119  121 ar  
   126  120  122 ar  
   127  120  129 1   
   128  121  123 ar  
   129  121  130 1   
   130  122  124 ar  
   131  122  131 1   
   132  123  124 ar  
   133  123  132 1   
   134  124  133 1   
   135  134  135 1   
   136  134  140 1   
   137  135  136 1   
   138  135  138 1   
   139  135  141 1   
   140  136  137 2   
   141  136  148 1   
   142  138  139 1   
   143  138  142 1   
   144  138  143 1   
   145  139  140 1   
   146  139  144 1   
   147  139  145 1   
   148  140  146 1   
   149  140  147 1   
   150  148  149 1   
   151  148  157 1   
   152  149  150 1   
   153  149  152 1   
   154  149  158 1   
   155  150  151 2   
   156  150  163 1   
   157  152  153 1   
   158  152  159 1   
   159  152  160 1   
   160  153  154 1   
   161  153  161 1   
   162  153  162 1   
   163  154  155 1   
   164  154  156 1   
   165  163  164 1   
   166  163  168 1   
   167  164  165 1   
   168  164  166 1   
   169  164  167 1   
   170  170  171 1   
   171  170  172 1   
   172  173  174 1   
   173  173  175 1   
@<TRIPOS>SUBSTRUCTURE
     1 MOL         1 TEMP              0 ****  ****    0 ROOT
