@<TRIPOS>MOLECULE
MOL
  175   173     1     0     0
SMALL
resp


@<TRIPOS>ATOM
      1 C1          0.4800    4.1380    5.3790 c3        1 MOL     -0.362333
      2 C2         -0.0920    4.3510    4.0070 c         1 MOL      0.811281
      3 O1          0.5600    4.7460    3.1350 o         1 MOL     -0.569082
      4 H1          0.0300    4.8480    6.0740 hc        1 MOL      0.077455
      5 H2          0.2650    3.1210    5.7100 hc        1 MOL      0.077455
      6 H3          1.5590    4.2910    5.3520 hc        1 MOL      0.077455
      7 N1         -1.3580    3.9770    3.8530 n         1 MOL     -0.763726
      8 C3         -1.9270    3.7410    2.5120 c3        1 MOL      0.409962
      9 C4         -2.1510    4.9430    1.6220 c         1 MOL      0.580449
     10 O2         -2.4070    5.9810    2.1600 o         1 MOL     -0.574070
     11 C5         -3.2630    2.9980    2.7380 c3        1 MOL     -0.428199
     12 C6         -4.0010    2.3580    1.5490 c         1 MOL      0.788194
     13 O3         -3.3610    2.2150    0.4930 o         1 MOL     -0.672135
     14 O4         -5.0650    1.7880    1.6610 o         1 MOL     -0.672135
     15 H4         -1.8040    3.7010    4.7160 hn        1 MOL      0.338794
     16 H5         -1.1740    3.2350    1.9120 h1        1 MOL     -0.058992
     17 H6         -3.8820    3.6940    3.2930 hc        1 MOL      0.084863
     18 H7         -3.1140    2.2010    3.4550 hc        1 MOL      0.084863
     19 N2         -2.1430    4.7460    0.2720 n         1 MOL     -0.587597
     20 C7         -2.4460    5.7220   -0.7270 c3        1 MOL      0.383542
     21 C8         -3.5160    5.2940   -1.8260 c         1 MOL      0.513746
     22 O5         -3.9090    6.0300   -2.6930 o         1 MOL     -0.559781
     23 C9         -1.1200    6.2250   -1.3730 c3        1 MOL     -0.340717
     24 H8         -1.8060    3.8420   -0.0310 hn        1 MOL      0.401941
     25 H9         -2.9430    6.5530   -0.2350 h1        1 MOL     -0.020985
     26 H10        -0.4400    6.6440   -0.6330 hc        1 MOL      0.074014
     27 H11        -0.6160    5.3150   -1.6900 hc        1 MOL      0.074014
     28 H12        -1.4290    6.9870   -2.0930 hc        1 MOL      0.074014
     29 N3         -4.0670    4.0700   -1.5860 n         1 MOL     -0.540467
     30 C10        -4.9090    3.3990   -2.5820 c3        1 MOL      0.342821
     31 C11        -6.1450    2.6460   -2.0870 c         1 MOL      0.307818
     32 O6         -7.0440    2.4640   -2.9510 o         1 MOL     -0.547036
     33 C12        -4.0580    2.5510   -3.5500 c3        1 MOL     -0.345966
     34 C13        -3.2970    1.4120   -2.9580 c         1 MOL      0.752173
     35 O7         -2.1460    1.1800   -3.3220 o         1 MOL     -0.677316
     36 O8         -3.8430    0.8100   -1.9800 o         1 MOL     -0.677316
     37 H13        -3.7980    3.5200   -0.7890 hn        1 MOL      0.192801
     38 H14        -5.4500    4.1340   -3.1910 h1        1 MOL      0.027548
     39 H15        -3.3910    3.2790   -4.0000 hc        1 MOL      0.071474
     40 H16        -4.7530    2.1970   -4.3140 hc        1 MOL      0.071474
     41 N4         -6.2370    2.1360   -0.8550 n         1 MOL     -0.187093
     42 C14        -7.3850    1.2910   -0.4760 c3        1 MOL     -0.268559
     43 C15        -7.3850   -0.1770   -0.9190 c         1 MOL      0.571263
     44 O9         -8.4620   -0.7520   -0.8350 o         1 MOL     -0.597791
     45 H17        -5.5260    2.3160   -0.1560 hn        1 MOL      0.196002
     46 H18        -8.3090    1.6460   -0.9260 h1        1 MOL      0.123582
     47 H19        -7.5130    1.2240    0.6020 h1        1 MOL      0.123582
     48 N5         -6.2260   -0.7590   -1.4280 n         1 MOL     -0.211624
     49 C16        -6.2550   -2.1540   -1.9720 c3        1 MOL     -0.041321
     50 C17        -6.4960   -3.3220   -0.8530 c         1 MOL      0.418278
     51 O10        -6.6430   -4.5120   -1.0780 o         1 MOL     -0.520785
     52 C18        -5.1480   -2.4120   -2.9920 c3        1 MOL     -0.131115
     53 C19        -3.6930   -2.2320   -2.5130 c         1 MOL      0.518271
     54 N6         -2.7450   -2.1470   -3.3830 n         1 MOL     -0.644480
     55 O11        -3.4370   -2.3180   -1.3410 o         1 MOL     -0.311600
     56 H20        -5.3690   -0.2540   -1.2540 hn        1 MOL      0.138115
     57 H21        -7.1440   -2.1640   -2.6000 h1        1 MOL      0.100089
     58 H22        -5.2460   -1.6700   -3.7870 hc        1 MOL      0.046482
     59 H23        -5.2670   -3.4320   -3.3600 hc        1 MOL      0.046482
     60 H24        -2.9020   -2.2210   -4.3790 hn        1 MOL      0.330659
     61 H25        -1.7840   -2.1810   -3.0640 hn        1 MOL      0.330659
     62 N7         -6.3690   -2.9720    0.4340 n         1 MOL     -0.220880
     63 C20        -6.3890   -3.9490    1.5220 c3        1 MOL     -0.242115
     64 C21        -5.0110   -4.4860    1.8510 c         1 MOL      0.535455
     65 O12        -4.9620   -5.3850    2.6670 o         1 MOL     -0.578407
     66 H26        -6.1400   -2.0140    0.6690 hn        1 MOL      0.204130
     67 H27        -6.9130   -4.8630    1.2280 h1        1 MOL      0.123815
     68 H28        -6.8870   -3.4960    2.3710 h1        1 MOL      0.123815
     69 N8         -3.9630   -3.9790    1.1930 n         1 MOL     -0.117998
     70 C22        -2.5420   -4.5000    1.3720 c3        1 MOL     -0.453881
     71 C23        -1.4360   -3.4020    1.4180 c         1 MOL      0.787865
     72 O13        -1.6520   -2.3670    0.7180 o         1 MOL     -0.778643
     73 C24        -2.2100   -5.6280    0.3100 c3        1 MOL      0.650598
     74 C25        -2.9200   -6.8800    0.6550 c3        1 MOL     -0.451796
     75 O14        -2.7430   -5.1190   -0.8840 oh        1 MOL     -0.645595
     76 H29        -4.1230   -3.1680    0.6270 hn        1 MOL      0.168316
     77 H30        -2.5380   -4.9620    2.3610 h1        1 MOL      0.110908
     78 H31        -1.1360   -5.7700    0.2810 h1        1 MOL     -0.062453
     79 H32        -2.7540   -4.1560   -0.8930 ho        1 MOL      0.318494
     80 H33        -3.8720   -6.9730    0.1320 hc        1 MOL      0.111187
     81 H34        -2.3600   -7.7180    0.2500 hc        1 MOL      0.111187
     82 H35        -3.0140   -7.0910    1.7180 hc        1 MOL      0.111187
     83 N9         -0.3170   -3.6150    2.1400 n         1 MOL     -0.530096
     84 C26         0.8790   -2.7920    1.9470 c3        1 MOL      0.024982
     85 C27         1.6420   -3.1410    0.6920 c         1 MOL      0.655212
     86 O15         2.0800   -4.2430    0.4810 o         1 MOL     -0.600399
     87 C28         1.8250   -2.9310    3.2100 c3        1 MOL     -0.017020
     88 C29         1.2140   -2.2240    4.4690 c3        1 MOL      0.294816
     89 C30         3.2620   -2.3450    2.9370 c3        1 MOL     -0.270118
     90 C31         1.8510   -2.5410    5.7690 c3        1 MOL     -0.257590
     91 H36        -0.2080   -4.5090    2.5960 hn        1 MOL      0.299117
     92 H37         0.5430   -1.7550    1.8950 h1        1 MOL      0.041667
     93 H38         1.8300   -3.9620    3.5830 hc        1 MOL      0.005967
     94 H39         0.1530   -2.4620    4.5420 hc        1 MOL     -0.059566
     95 H40         1.2220   -1.1410    4.3160 hc        1 MOL     -0.059566
     96 H41         3.7960   -3.0620    2.3100 hc        1 MOL      0.066404
     97 H42         3.2460   -1.3940    2.4130 hc        1 MOL      0.066404
     98 H43         3.8500   -2.2200    3.8540 hc        1 MOL      0.066404
     99 H44         1.8210   -3.6320    5.7870 hc        1 MOL      0.047468
    100 H45         2.9030   -2.2840    5.8790 hc        1 MOL      0.047468
    101 H46         1.2060   -2.3840    6.6330 hc        1 MOL      0.047468
    102 N10         1.7310   -2.0990   -0.1510 n         1 MOL     -0.266961
    103 C32         2.6190   -2.0360   -1.3180 c3        1 MOL     -0.007139
    104 C33         4.1190   -1.5490   -0.8670 c         1 MOL      0.418085
    105 O16         4.3310   -1.0900    0.2450 o         1 MOL     -0.313891
    106 C34         1.9710   -1.1560   -2.3730 c3        1 MOL     -0.137834
    107 C35         0.4920   -1.4970   -2.6900 c         1 MOL      0.710157
    108 O17        -0.4210   -0.9820   -1.9450 o         1 MOL     -0.671515
    109 O18         0.2590   -2.2550   -3.6610 o         1 MOL     -0.671515
    110 H47         1.2130   -1.2810    0.1310 hn        1 MOL      0.138828
    111 H48         2.6430   -3.0000   -1.8100 h1        1 MOL      0.065389
    112 H49         2.5380   -1.1850   -3.3040 hc        1 MOL      0.030664
    113 H50         2.0180   -0.1630   -1.9320 hc        1 MOL      0.030664
    114 N11         5.1120   -1.7840   -1.7360 n         1 MOL     -0.645684
    115 C36         6.5380   -1.5160   -1.3980 c3        1 MOL      0.472752
    116 C37         6.8560   -0.0220   -1.0750 c         1 MOL      0.299236
    117 O19         7.5850    0.2210   -0.1070 o         1 MOL     -0.465865
    118 C38         7.4430   -2.1540   -2.4560 c3        1 MOL     -0.335759
    119 C39         8.9230   -1.8180   -2.2150 ca        1 MOL      0.092098
    120 C40         9.7570   -2.6250   -1.4110 ca        1 MOL     -0.152982
    121 C41         9.4450   -0.6620   -2.8180 ca        1 MOL     -0.152982
    122 C42        11.1270   -2.3630   -1.2240 ca        1 MOL     -0.102399
    123 C43        10.8130   -0.3990   -2.6090 ca        1 MOL     -0.102399
    124 C44        11.6510   -1.1870   -1.8370 ca        1 MOL     -0.145029
    125 H51         4.8150   -2.1390   -2.6380 hn        1 MOL      0.329921
    126 H52         6.8900   -2.0650   -0.5220 h1        1 MOL      0.019098
    127 H53         7.1760   -2.0410   -3.5040 hc        1 MOL      0.096059
    128 H54         7.3200   -3.2030   -2.2010 hc        1 MOL      0.096059
    129 H55         9.3840   -3.5470   -0.9950 ha        1 MOL      0.115636
    130 H56         8.8590   -0.0470   -3.4780 ha        1 MOL      0.115636
    131 H57        11.7540   -3.0480   -0.6780 ha        1 MOL      0.108337
    132 H58        11.2140    0.5550   -2.8900 ha        1 MOL      0.108337
    133 H59        12.6510   -0.8540   -1.5910 ha        1 MOL      0.115872
    134 N12         6.2600    0.9770   -1.7700 n         1 MOL      0.016648
    135 C45         6.3240    2.3440   -1.3230 c3        1 MOL     -0.114658
    136 C46         5.7530    2.6160    0.1300 c         1 MOL      0.288464
    137 O20         6.1560    3.6610    0.7530 o         1 MOL     -0.492506
    138 C47         5.6050    3.1880   -2.4340 c3        1 MOL      0.024365
    139 C48         5.8560    2.3170   -3.6500 c3        1 MOL     -0.096912
    140 C49         5.6420    0.9490   -3.1420 c3        1 MOL     -0.052161
    141 H60         7.3590    2.6660   -1.1700 h1        1 MOL      0.082978
    142 H61         4.5320    3.2060   -2.2210 hc        1 MOL      0.047301
    143 H62         5.9540    4.1940   -2.6690 hc        1 MOL      0.047301
    144 H63         5.1070    2.5510   -4.3910 hc        1 MOL      0.041389
    145 H64         6.8380    2.5200   -4.0670 hc        1 MOL      0.041389
    146 H65         4.5780    0.7150   -3.1810 h1        1 MOL      0.052903
    147 H66         6.0880    0.1280   -3.7040 h1        1 MOL      0.052903
    148 N13         4.7250    1.8560    0.5230 n         1 MOL     -0.099132
    149 C50         4.0470    1.9980    1.8100 c3        1 MOL     -0.034123
    150 C51         4.8710    1.3460    3.0060 c         1 MOL      0.368917
    151 O21         4.9450    1.8730    4.1550 o         1 MOL     -0.536795
    152 C52         2.5900    1.5070    1.6610 c3        1 MOL     -0.182576
    153 C53         1.6960    2.2800    0.6090 c3        1 MOL     -0.002088
    154 C54         0.3710    1.5270    0.4820 c         1 MOL      0.718764
    155 O22        -0.4910    2.1320   -0.1420 o         1 MOL     -0.739336
    156 O23         0.2280    0.3780    0.9380 o         1 MOL     -0.739336
    157 H67         4.5000    1.0840   -0.0900 hn        1 MOL      0.123019
    158 H68         3.9350    3.0330    2.1270 h1        1 MOL      0.102451
    159 H69         2.0670    1.6360    2.6070 hc        1 MOL      0.084093
    160 H70         2.6460    0.4160    1.6470 hc        1 MOL      0.084093
    161 H71         2.1070    2.5670   -0.3500 hc        1 MOL      0.039475
    162 H72         1.3580    3.2720    0.9200 hc        1 MOL      0.039475
    163 N14         5.7090    0.3180    2.6700 n         1 MOL      0.022155
    164 C55         6.6860   -0.3840    3.5500 c3        1 MOL     -0.157546
    165 H73         6.4950   -0.1170    4.5900 h1        1 MOL      0.070800
    166 H74         6.5790   -1.4620    3.4270 h1        1 MOL      0.070800
    167 H75         7.7000   -0.0860    3.2800 h1        1 MOL      0.070800
    168 H76         5.5110   -0.0020    1.7410 hn        1 MOL     -0.014105
    169 Ca1        -2.2390   -0.0650   -0.2660 Ca        1 MOL      1.682817
    170 O24        -4.5800   -0.7490    1.2590 oh        1 MOL     -0.776078
    171 H77        -4.9970   -1.0390    2.0660 ho        1 MOL      0.381413
    172 H78        -4.7400    0.1920    1.2390 ho        1 MOL      0.381413
    173 O25        -1.9020    0.1040    2.4880 oh        1 MOL     -0.776078
    174 H79        -0.9840    0.1200    2.2090 ho        1 MOL      0.381413
    175 H80        -1.8840    0.4240    3.3810 ho        1 MOL      0.381413
@<TRIPOS>BOND
     1    1    2 1   
     2    1    4 1   
     3    1    5 1   
     4    1    6 1   
     5    2    3 2   
     6    2    7 1   
     7    7    8 1   
     8    7   15 1   
     9    8    9 1   
    10    8   11 1   
    11    8   16 1   
    12    9   10 2   
    13    9   19 1   
    14   11   12 1   
    15   11   17 1   
    16   11   18 1   
    17   12   13 1   
    18   12   14 1   
    19   19   20 1   
    20   19   24 1   
    21   20   21 1   
    22   20   23 1   
    23   20   25 1   
    24   21   22 2   
    25   21   29 1   
    26   23   26 1   
    27   23   27 1   
    28   23   28 1   
    29   29   30 1   
    30   29   37 1   
    31   30   31 1   
    32   30   33 1   
    33   30   38 1   
    34   31   32 2   
    35   31   41 1   
    36   33   34 1   
    37   33   39 1   
    38   33   40 1   
    39   34   35 1   
    40   34   36 1   
    41   41   42 1   
    42   41   45 1   
    43   42   43 1   
    44   42   46 1   
    45   42   47 1   
    46   43   44 2   
    47   43   48 1   
    48   48   49 1   
    49   48   56 1   
    50   49   50 1   
    51   49   52 1   
    52   49   57 1   
    53   50   51 2   
    54   50   62 1   
    55   52   53 1   
    56   52   58 1   
    57   52   59 1   
    58   53   54 1   
    59   53   55 2   
    60   54   60 1   
    61   54   61 1   
    62   62   63 1   
    63   62   66 1   
    64   63   64 1   
    65   63   67 1   
    66   63   68 1   
    67   64   65 2   
    68   64   69 1   
    69   69   70 1   
    70   69   76 1   
    71   70   71 1   
    72   70   73 1   
    73   70   77 1   
    74   71   72 2   
    75   71   83 1   
    76   73   74 1   
    77   73   75 1   
    78   73   78 1   
    79   74   80 1   
    80   74   81 1   
    81   74   82 1   
    82   75   79 1   
    83   83   84 1   
    84   83   91 1   
    85   84   85 1   
    86   84   87 1   
    87   84   92 1   
    88   85   86 2   
    89   85  102 1   
    90   87   88 1   
    91   87   89 1   
    92   87   93 1   
    93   88   90 1   
    94   88   94 1   
    95   88   95 1   
    96   89   96 1   
    97   89   97 1   
    98   89   98 1   
    99   90   99 1   
   100   90  100 1   
   101   90  101 1   
   102  102  103 1   
   103  102  110 1   
   104  103  104 1   
   105  103  106 1   
   106  103  111 1   
   107  104  105 2   
   108  104  114 1   
   109  106  107 1   
   110  106  112 1   
   111  106  113 1   
   112  107  108 1   
   113  107  109 1   
   114  114  115 1   
   115  114  125 1   
   116  115  116 1   
   117  115  118 1   
   118  115  126 1   
   119  116  117 2   
   120  116  134 1   
   121  118  119 1   
   122  118  127 1   
   123  118  128 1   
   124  119  120 ar  
   125  119  121 ar  
   126  120  122 ar  
   127  120  129 1   
   128  121  123 ar  
   129  121  130 1   
   130  122  124 ar  
   131  122  131 1   
   132  123  124 ar  
   133  123  132 1   
   134  124  133 1   
   135  134  135 1   
   136  134  140 1   
   137  135  136 1   
   138  135  138 1   
   139  135  141 1   
   140  136  137 2   
   141  136  148 1   
   142  138  139 1   
   143  138  142 1   
   144  138  143 1   
   145  139  140 1   
   146  139  144 1   
   147  139  145 1   
   148  140  146 1   
   149  140  147 1   
   150  148  149 1   
   151  148  157 1   
   152  149  150 1   
   153  149  152 1   
   154  149  158 1   
   155  150  151 2   
   156  150  163 1   
   157  152  153 1   
   158  152  159 1   
   159  152  160 1   
   160  153  154 1   
   161  153  161 1   
   162  153  162 1   
   163  154  155 1   
   164  154  156 1   
   165  163  164 1   
   166  163  168 1   
   167  164  165 1   
   168  164  166 1   
   169  164  167 1   
   170  170  171 1   
   171  170  172 1   
   172  173  174 1   
   173  173  175 1   
@<TRIPOS>SUBSTRUCTURE
     1 MOL         1 TEMP              0 ****  ****    0 ROOT
