@<TRIPOS>MOLECULE
MOL
  186   183     1     0     0
SMALL
resp


@<TRIPOS>ATOM
      1 C1          0.3720   -1.4120    6.5480 c3        1 MOL     -0.370034
      2 C2          0.7170   -1.5640    5.0190 c         1 MOL      0.705445
      3 O1         -0.0410   -2.1220    4.2140 o         1 MOL     -0.570199
      4 H1         -0.1750   -0.4830    6.7070 hc        1 MOL      0.084700
      5 H2         -0.2420   -2.2540    6.8680 hc        1 MOL      0.084700
      6 H3          1.2940   -1.3930    7.1290 hc        1 MOL      0.084700
      7 N1          1.8880   -1.1130    4.6910 n         1 MOL     -0.616058
      8 C3          2.4200   -1.3000    3.3390 c3        1 MOL      0.222288
      9 C4          2.8050   -2.8100    3.0280 c         1 MOL      0.711429
     10 O2          3.3240   -3.4420    3.9510 o         1 MOL     -0.638299
     11 C5          3.5370   -0.2630    3.0710 c3        1 MOL     -0.381191
     12 C6          4.2590   -0.5010    1.6950 c         1 MOL      0.580829
     13 O3          5.4760   -0.2650    1.6230 o         1 MOL     -0.560326
     14 O4          3.5700   -0.9050    0.7300 o         1 MOL     -0.560326
     15 H4          2.4290   -0.5910    5.3660 hn        1 MOL      0.326929
     16 H5          1.6020   -1.1090    2.6510 h1        1 MOL      0.051433
     17 H6          4.3310   -0.3660    3.8200 hc        1 MOL      0.090479
     18 H7          3.1110    0.7350    3.0760 hc        1 MOL      0.090479
     19 N2          2.5980   -3.3880    1.8330 n         1 MOL     -0.368923
     20 C7          2.7110   -4.7530    1.3670 c3        1 MOL      0.111065
     21 C8          3.7060   -4.9830    0.3290 c         1 MOL      0.441676
     22 O5          4.5370   -5.8680    0.5160 o         1 MOL     -0.579973
     23 C9          1.3010   -5.2450    1.0960 c3        1 MOL      0.093551
     24 C10         0.4620   -5.4700    2.3520 c3        1 MOL      0.179894
     25 C11         1.3350   -6.6430    0.4560 c3        1 MOL     -0.483628
     26 C12        -1.0520   -5.6220    2.2110 c3        1 MOL     -0.227708
     27 H8          2.1910   -2.6990    1.2140 hn        1 MOL      0.050894
     28 H9          3.0060   -5.3010    2.2620 h1        1 MOL      0.027313
     29 H10         0.7500   -4.6730    0.3580 hc        1 MOL      0.065829
     30 H11         0.6990   -4.7010    3.0930 hc        1 MOL     -0.031657
     31 H12         0.7910   -6.3880    2.8430 hc        1 MOL     -0.031657
     32 H13         1.8960   -7.3810    1.0370 hc        1 MOL      0.108435
     33 H14         0.3710   -7.0810    0.1830 hc        1 MOL      0.108435
     34 H15         1.8220   -6.4510   -0.4910 hc        1 MOL      0.108435
     35 H16        -1.4700   -5.8450    3.1950 hc        1 MOL      0.042689
     36 H17        -1.4760   -4.6750    1.8740 hc        1 MOL      0.042689
     37 H18        -1.2720   -6.3920    1.4690 hc        1 MOL      0.042689
     38 N3          3.6870   -4.2520   -0.7980 n         1 MOL     -0.157168
     39 C13         4.5620   -4.3550   -1.9390 c3        1 MOL     -0.033728
     40 C14         5.8750   -3.5630   -1.9060 c         1 MOL      0.419758
     41 O6          6.8000   -3.7900   -2.7220 o         1 MOL     -0.531012
     42 C15         3.7720   -4.0540   -3.2550 c3        1 MOL     -0.166839
     43 C16         3.2820   -2.6580   -3.4550 c         1 MOL      0.786594
     44 O7          2.6930   -2.3550   -4.5610 o         1 MOL     -0.720137
     45 O8          3.3450   -1.8050   -2.5230 o         1 MOL     -0.720137
     46 H19         2.9650   -3.5490   -0.7750 hn        1 MOL      0.161892
     47 H20         4.9860   -5.3560   -2.0230 h1        1 MOL      0.077655
     48 H21         2.9020   -4.7060   -3.2500 hc        1 MOL      0.034570
     49 H22         4.4360   -4.3370   -4.0660 hc        1 MOL      0.034570
     50 N4          6.1240   -2.7980   -0.8670 n         1 MOL     -0.123852
     51 C17         7.5120   -2.3390   -0.4930 c3        1 MOL     -0.141743
     52 C18         7.9170   -1.0420   -1.1140 c         1 MOL      0.528499
     53 O9          8.9140   -0.9710   -1.8220 o         1 MOL     -0.576138
     54 H23         5.3910   -2.6510   -0.1790 hn        1 MOL      0.199376
     55 H24         8.3400   -3.0130   -0.7140 h1        1 MOL      0.068794
     56 H25         7.4130   -2.1200    0.5700 h1        1 MOL      0.068794
     57 N5          7.0660   -0.0090   -1.0250 n         1 MOL     -0.070250
     58 C19         7.3030    1.3980   -1.5010 c3        1 MOL     -0.020122
     59 C20         7.3460    2.5180   -0.4630 c         1 MOL      0.426485
     60 O10         7.7030    3.6760   -0.7450 o         1 MOL     -0.549231
     61 C21         6.3730    1.7140   -2.6780 c3        1 MOL     -0.347215
     62 C22         4.9440    1.4580   -2.2270 c         1 MOL      0.861985
     63 O11         4.5850    1.5940   -1.0420 o         1 MOL     -0.789362
     64 O12         4.0570    1.1530   -3.0900 o         1 MOL     -0.789362
     65 H26         6.2310   -0.1350   -0.4630 hn        1 MOL     -0.107828
     66 H27         8.3060    1.4460   -1.9340 h1        1 MOL      0.078345
     67 H28         6.6680    1.0140   -3.4560 hc        1 MOL      0.110957
     68 H29         6.4100    2.7690   -2.9240 hc        1 MOL      0.110957
     69 N6          7.0520    2.1520    0.7510 n         1 MOL     -0.315668
     70 C23         6.8560    3.1030    1.8720 c3        1 MOL     -0.079618
     71 C24         5.4130    3.7790    1.9480 c         1 MOL      0.507674
     72 O13         5.2660    4.6080    2.8170 o         1 MOL     -0.597216
     73 H30         6.6880    1.2340    0.9630 hn        1 MOL      0.236706
     74 H31         7.6030    3.8610    1.6400 h1        1 MOL      0.076822
     75 H32         7.0800    2.6630    2.8390 h1        1 MOL      0.076822
     76 N7          4.4610    3.4660    1.0280 n         1 MOL     -0.337881
     77 C25         3.1060    4.0720    1.0150 c3        1 MOL      0.238903
     78 C26         1.9060    3.0830    1.0840 c         1 MOL      0.467977
     79 O14         2.0830    1.8960    0.7320 o         1 MOL     -0.625644
     80 C27         3.0110    4.9930   -0.1720 c3        1 MOL     -0.010217
     81 C28         4.0430    6.0860   -0.1460 c3        1 MOL     -0.101952
     82 C29         3.9570    6.9920   -1.3850 c         1 MOL      0.587309
     83 N8          5.0520    7.1080   -2.1460 n         1 MOL     -0.757590
     84 O15         2.9210    7.5660   -1.5720 o         1 MOL     -0.561741
     85 H33         4.7240    2.8230    0.2930 hn        1 MOL      0.345709
     86 H34         2.9960    4.6700    1.9190 h1        1 MOL     -0.001367
     87 H35         2.0660    5.5220   -0.1170 hc        1 MOL      0.014505
     88 H36         3.1850    4.3840   -1.0640 hc        1 MOL      0.014505
     89 H37         5.0580    5.7000   -0.0430 hc        1 MOL      0.023804
     90 H38         3.7870    6.7100    0.7070 hc        1 MOL      0.023804
     91 H39         5.8900    6.6220   -1.8660 hn        1 MOL      0.352122
     92 H40         5.0210    7.7230   -2.9450 hn        1 MOL      0.352122
     93 N9          0.7530    3.5540    1.4850 n         1 MOL     -0.516066
     94 C30        -0.4050    2.6810    1.7960 c3        1 MOL      0.302253
     95 C31        -1.5420    3.0620    0.8740 c         1 MOL      0.281802
     96 O16        -2.1610    4.1310    0.9840 o         1 MOL     -0.541022
     97 C32        -0.7970    2.8370    3.2620 c3        1 MOL      0.005145
     98 C33        -1.9340    1.9020    3.5510 c3        1 MOL     -0.188032
     99 C34         0.3940    2.5120    4.2260 c3        1 MOL     -0.188032
    100 H41         0.7170    4.5560    1.6400 hn        1 MOL      0.306808
    101 H42        -0.2390    1.6300    1.5460 h1        1 MOL      0.118022
    102 H43        -1.1050    3.8730    3.3770 hc        1 MOL      0.009198
    103 H44        -2.8700    2.2760    3.1300 hc        1 MOL      0.046378
    104 H45        -1.7820    0.9190    3.1180 hc        1 MOL      0.046378
    105 H46        -2.2910    1.7790    4.5750 hc        1 MOL      0.046378
    106 H47         0.6770    1.4750    4.0690 hc        1 MOL      0.046378
    107 H48         1.3300    3.0050    3.9710 hc        1 MOL      0.046378
    108 H49         0.1840    2.6770    5.2840 hc        1 MOL      0.046378
    109 N10        -1.7990    2.1570   -0.0980 n         1 MOL     -0.058522
    110 C35        -3.0030    2.3020   -0.9270 c3        1 MOL     -0.026089
    111 C36        -4.3150    2.0600   -0.1630 c         1 MOL      0.398180
    112 O17        -4.2590    1.3530    0.8370 o         1 MOL     -0.209001
    113 C37        -2.7790    1.3760   -2.1310 c3        1 MOL     -0.566078
    114 C38        -3.6560    1.7480   -3.2660 c         1 MOL      0.815130
    115 N11        -3.2190    2.6460   -4.1230 n         1 MOL     -0.781298
    116 O18        -4.8180    1.4410   -3.2680 o         1 MOL     -0.594246
    117 H50        -1.3520    1.2520   -0.0630 hn        1 MOL      0.154391
    118 H51        -3.1500    3.2910   -1.3700 h1        1 MOL      0.051663
    119 H52        -2.9380    0.3910   -1.6890 hc        1 MOL      0.237632
    120 H53        -1.7340    1.4040   -2.4460 hc        1 MOL      0.237632
    121 H54        -2.2790    2.9990   -4.0530 hn        1 MOL      0.358474
    122 H55        -3.9130    3.1310   -4.6910 hn        1 MOL      0.358474
    123 N12        -5.4430    2.4790   -0.7030 n         1 MOL     -0.506282
    124 C39        -6.7320    2.0120   -0.2180 c3        1 MOL      0.121646
    125 C40        -6.7750    0.4930   -0.2720 c         1 MOL      0.806249
    126 O19        -7.2920   -0.1600    0.6170 o         1 MOL     -0.563820
    127 C41        -7.8500    2.6310   -1.0460 c3        1 MOL     -0.208416
    128 C42        -9.2720    2.1520   -0.5600 ca        1 MOL      0.041174
    129 C43        -9.7260    2.5380    0.7230 ca        1 MOL     -0.179233
    130 C44       -10.0770    1.2840   -1.3170 ca        1 MOL     -0.179233
    131 C45       -10.9400    2.0660    1.2000 ca        1 MOL     -0.252165
    132 C46       -11.2860    0.7260   -0.7730 ca        1 MOL     -0.252165
    133 C47       -11.7350    1.1260    0.4690 ca        1 MOL      0.337851
    134 O20       -12.8670    0.6180    1.0460 oh        1 MOL     -0.510713
    135 H56        -5.4010    2.8780   -1.6300 hn        1 MOL      0.320558
    136 H57        -6.7890    2.3410    0.8160 h1        1 MOL      0.082426
    137 H58        -7.8320    2.3980   -2.1090 hc        1 MOL      0.082163
    138 H59        -7.7740    3.7140   -1.1320 hc        1 MOL      0.082163
    139 H60        -9.1650    3.1290    1.4360 ha        1 MOL      0.142326
    140 H61        -9.6840    0.9430   -2.2580 ha        1 MOL      0.142326
    141 H62       -11.2370    2.2630    2.2210 ha        1 MOL      0.144099
    142 H63       -11.8130   -0.0630   -1.2970 ha        1 MOL      0.144099
    143 H64       -13.3160    0.0330    0.4250 ho        1 MOL      0.364788
    144 N13        -6.1880   -0.1230   -1.2940 n         1 MOL     -0.615274
    145 C48        -6.2100   -1.5520   -1.5160 c3        1 MOL      0.228184
    146 C49        -5.3510   -2.3280   -0.4680 c         1 MOL      0.337301
    147 O21        -5.2870   -3.5240   -0.4270 o         1 MOL     -0.534403
    148 C50        -5.7520   -1.8720   -2.9690 c3        1 MOL     -0.065419
    149 C51        -5.7400   -3.2790   -3.5030 c3        1 MOL     -0.267255
    150 C52        -5.0530   -3.3050   -4.8520 c         1 MOL      0.731964
    151 O22        -3.9640   -3.8810   -4.8870 o         1 MOL     -0.747741
    152 O23        -5.6200   -2.6950   -5.8270 o         1 MOL     -0.747741
    153 H65        -5.6590    0.4080   -1.9650 hn        1 MOL      0.316431
    154 H66        -7.2320   -1.8940   -1.3620 h1        1 MOL      0.032008
    155 H67        -4.7760   -1.3750   -2.9750 hc        1 MOL      0.038123
    156 H68        -6.3980   -1.2530   -3.5990 hc        1 MOL      0.038123
    157 H69        -6.6820   -3.8310   -3.4620 hc        1 MOL      0.056250
    158 H70        -5.0520   -3.8310   -2.8580 hc        1 MOL      0.056250
    159 N14        -4.6220   -1.5500    0.3650 n         1 MOL      0.247239
    160 C53        -3.8580   -2.0220    1.4750 c3        1 MOL     -0.160843
    161 C54        -4.4550   -1.6250    2.8330 c         1 MOL      0.418688
    162 O24        -4.1610   -2.1420    3.9100 o         1 MOL     -0.566239
    163 C55        -2.4010   -1.5360    1.2590 c3        1 MOL      0.180692
    164 C56        -1.6020   -2.0130    0.0300 c3        1 MOL     -0.243144
    165 C57        -0.2520   -1.2950   -0.0760 c         1 MOL      0.651182
    166 O25         0.8310   -1.8910   -0.3420 o         1 MOL     -0.734419
    167 O26        -0.1180   -0.0520   -0.0720 o         1 MOL     -0.734419
    168 H71        -4.7000   -0.5550    0.1920 hn        1 MOL     -0.506690
    169 H72        -3.8750   -3.1180    1.3870 h1        1 MOL      0.102717
    170 H73        -1.7590   -1.7870    2.1070 hc        1 MOL      0.026329
    171 H74        -2.4390   -0.4490    1.2330 hc        1 MOL      0.026329
    172 H75        -2.1820   -2.0120   -0.9000 hc        1 MOL      0.114791
    173 H76        -1.4030   -3.0660    0.2500 hc        1 MOL      0.114791
    174 N15        -5.2200   -0.5480    2.8470 n         1 MOL     -0.000363
    175 C58        -5.9060    0.0940    4.0740 c3        1 MOL     -0.193990
    176 H77        -5.7960    1.1780    4.0250 h1        1 MOL      0.084148
    177 H78        -6.9650   -0.1630    4.0750 h1        1 MOL      0.084148
    178 H79        -5.4400   -0.2770    4.9870 h1        1 MOL      0.084148
    179 H80        -5.2280   -0.0660    1.9530 hn        1 MOL     -0.034898
    180 Ca1         2.3050    0.1260   -1.2200 Ca        1 MOL      1.812058
    181 O27         1.3680    2.9060   -2.2500 oh        1 MOL     -0.905283
    182 H81         2.1680    3.3330   -2.5750 ho        1 MOL      0.421240
    183 H82         0.7270    3.0520   -2.9470 ho        1 MOL      0.421240
    184 O28         0.7910   -0.4060   -3.3550 oh        1 MOL     -0.905283
    185 H83         0.0910   -0.3470   -4.0040 ho        1 MOL      0.421240
    186 H84         1.2980   -1.1730   -3.6100 ho        1 MOL      0.421240
@<TRIPOS>BOND
     1    1    2 1   
     2    1    4 1   
     3    1    5 1   
     4    1    6 1   
     5    2    3 2   
     6    2    7 1   
     7    7    8 1   
     8    7   15 1   
     9    8    9 1   
    10    8   11 1   
    11    8   16 1   
    12    9   10 2   
    13    9   19 1   
    14   11   12 1   
    15   11   17 1   
    16   11   18 1   
    17   12   13 1   
    18   12   14 1   
    19   19   20 1   
    20   19   27 1   
    21   20   21 1   
    22   20   23 1   
    23   20   28 1   
    24   21   22 2   
    25   21   38 1   
    26   23   24 1   
    27   23   25 1   
    28   23   29 1   
    29   24   26 1   
    30   24   30 1   
    31   24   31 1   
    32   25   32 1   
    33   25   33 1   
    34   25   34 1   
    35   26   35 1   
    36   26   36 1   
    37   26   37 1   
    38   38   39 1   
    39   38   46 1   
    40   39   40 1   
    41   39   42 1   
    42   39   47 1   
    43   40   41 2   
    44   40   50 1   
    45   42   43 1   
    46   42   48 1   
    47   42   49 1   
    48   43   44 1   
    49   43   45 1   
    50   50   51 1   
    51   50   54 1   
    52   51   52 1   
    53   51   55 1   
    54   51   56 1   
    55   52   53 2   
    56   52   57 1   
    57   57   58 1   
    58   57   65 1   
    59   58   59 1   
    60   58   61 1   
    61   58   66 1   
    62   59   60 2   
    63   59   69 1   
    64   61   62 1   
    65   61   67 1   
    66   61   68 1   
    67   62   63 1   
    68   62   64 1   
    69   69   70 1   
    70   69   73 1   
    71   70   71 1   
    72   70   74 1   
    73   70   75 1   
    74   71   72 2   
    75   71   76 1   
    76   76   77 1   
    77   76   85 1   
    78   77   78 1   
    79   77   80 1   
    80   77   86 1   
    81   78   79 2   
    82   78   93 1   
    83   80   81 1   
    84   80   87 1   
    85   80   88 1   
    86   81   82 1   
    87   81   89 1   
    88   81   90 1   
    89   82   83 1   
    90   82   84 2   
    91   83   91 1   
    92   83   92 1   
    93   93   94 1   
    94   93  100 1   
    95   94   95 1   
    96   94   97 1   
    97   94  101 1   
    98   95   96 2   
    99   95  109 1   
   100   97   98 1   
   101   97   99 1   
   102   97  102 1   
   103   98  103 1   
   104   98  104 1   
   105   98  105 1   
   106   99  106 1   
   107   99  107 1   
   108   99  108 1   
   109  109  110 1   
   110  109  117 1   
   111  110  111 1   
   112  110  113 1   
   113  110  118 1   
   114  111  112 2   
   115  111  123 1   
   116  113  114 1   
   117  113  119 1   
   118  113  120 1   
   119  114  115 1   
   120  114  116 2   
   121  115  121 1   
   122  115  122 1   
   123  123  124 1   
   124  123  135 1   
   125  124  125 1   
   126  124  127 1   
   127  124  136 1   
   128  125  126 2   
   129  125  144 1   
   130  127  128 1   
   131  127  137 1   
   132  127  138 1   
   133  128  129 ar  
   134  128  130 ar  
   135  129  131 ar  
   136  129  139 1   
   137  130  132 ar  
   138  130  140 1   
   139  131  133 ar  
   140  131  141 1   
   141  132  133 ar  
   142  132  142 1   
   143  133  134 1   
   144  134  143 1   
   145  144  145 1   
   146  144  153 1   
   147  145  146 1   
   148  145  148 1   
   149  145  154 1   
   150  146  147 2   
   151  146  159 1   
   152  148  149 1   
   153  148  155 1   
   154  148  156 1   
   155  149  150 1   
   156  149  157 1   
   157  149  158 1   
   158  150  151 1   
   159  150  152 1   
   160  159  160 1   
   161  159  168 1   
   162  160  161 1   
   163  160  163 1   
   164  160  169 1   
   165  161  162 2   
   166  161  174 1   
   167  163  164 1   
   168  163  170 1   
   169  163  171 1   
   170  164  165 1   
   171  164  172 1   
   172  164  173 1   
   173  165  166 1   
   174  165  167 1   
   175  174  175 1   
   176  174  179 1   
   177  175  176 1   
   178  175  177 1   
   179  175  178 1   
   180  181  182 1   
   181  181  183 1   
   182  184  185 1   
   183  184  186 1   
@<TRIPOS>SUBSTRUCTURE
     1 MOL         1 TEMP              0 ****  ****    0 ROOT
