@<TRIPOS>MOLECULE
MOL
  186   183     1     0     0
SMALL
resp


@<TRIPOS>ATOM
      1 C1          0.1300   -1.6800    6.2460 c3        1 MOL     -0.297117
      2 C2          0.5620   -1.8960    4.7900 c         1 MOL      0.793176
      3 O1         -0.2170   -2.4340    3.9730 o         1 MOL     -0.629296
      4 H1         -0.2350   -0.6600    6.3680 hc        1 MOL      0.063127
      5 H2         -0.6640   -2.3830    6.4980 hc        1 MOL      0.063127
      6 H3          0.9820   -1.8420    6.9060 hc        1 MOL      0.063127
      7 N1          1.6940   -1.4050    4.4640 n         1 MOL     -0.661168
      8 C3          2.3640   -1.4010    3.0880 c3        1 MOL      0.197119
      9 C4          2.8650   -2.8360    2.6330 c         1 MOL      0.623277
     10 O2          3.7520   -3.4100    3.2970 o         1 MOL     -0.580462
     11 C5          3.5940   -0.5390    3.1430 c3        1 MOL     -0.201482
     12 C6          4.4280   -0.3510    1.8110 c         1 MOL      0.613822
     13 O3          5.5900    0.1710    1.9010 o         1 MOL     -0.646558
     14 O4          3.9170   -0.6890    0.7190 o         1 MOL     -0.646558
     15 H4          2.2940   -0.9800    5.1490 hn        1 MOL      0.329049
     16 H5          1.7300   -0.9830    2.3030 h1        1 MOL      0.045824
     17 H6          4.2200   -0.7310    4.0250 hc        1 MOL      0.035229
     18 H7          3.2650    0.4890    3.3050 hc        1 MOL      0.035229
     19 N2          2.0980   -3.3760    1.7460 n         1 MOL     -0.391717
     20 C7          2.2370   -4.7850    1.3840 c3        1 MOL     -0.091254
     21 C8          3.4830   -4.9810    0.5060 c         1 MOL      0.499765
     22 O5          4.2940   -5.8250    0.8570 o         1 MOL     -0.553035
     23 C9          0.9020   -5.3820    0.8320 c3        1 MOL      0.193006
     24 C10        -0.2600   -5.1830    1.8110 c3        1 MOL      0.200686
     25 C11         1.0710   -6.9010    0.5280 c3        1 MOL     -0.398211
     26 C12        -1.6450   -5.6630    1.3240 c3        1 MOL     -0.141097
     27 H8          1.3690   -2.8320    1.3180 hn        1 MOL      0.150809
     28 H9          2.3500   -5.3600    2.3050 h1        1 MOL      0.089837
     29 H10         0.6080   -5.0320   -0.1620 hc        1 MOL      0.014114
     30 H11        -0.3580   -4.1690    2.1810 hc        1 MOL     -0.047454
     31 H12        -0.1240   -5.7650    2.7260 hc        1 MOL     -0.047454
     32 H13         1.8860   -7.0270   -0.1880 hc        1 MOL      0.084205
     33 H14         1.3560   -7.4440    1.4350 hc        1 MOL      0.084205
     34 H15         0.1830   -7.3380    0.0670 hc        1 MOL      0.084205
     35 H16        -1.6520   -6.7040    1.0080 hc        1 MOL      0.029947
     36 H17        -2.4210   -5.5190    2.0790 hc        1 MOL      0.029947
     37 H18        -1.9170   -5.1090    0.4340 hc        1 MOL      0.029947
     38 N3          3.6380   -4.1580   -0.5670 n         1 MOL     -0.345699
     39 C13         4.7080   -4.3470   -1.5870 c3        1 MOL     -0.032950
     40 C14         6.0330   -3.6230   -1.2550 c         1 MOL      0.391815
     41 O6          7.0330   -3.5140   -1.9810 o         1 MOL     -0.526428
     42 C15         4.2640   -3.8720   -3.0480 c3        1 MOL     -0.188302
     43 C16         3.7150   -2.4640   -3.1000 c         1 MOL      0.852905
     44 O7          3.8280   -1.6780   -2.0970 o         1 MOL     -0.731856
     45 O8          3.1130   -2.0840   -4.1050 o         1 MOL     -0.731856
     46 H19         2.9560   -3.4550   -0.7830 hn        1 MOL      0.283829
     47 H20         4.8320   -5.4340   -1.5910 h1        1 MOL      0.093323
     48 H21         3.3780   -4.4530   -3.3310 hc        1 MOL      0.045619
     49 H22         5.0180   -4.0240   -3.8120 hc        1 MOL      0.045619
     50 N4          6.0460   -3.0420   -0.0390 n         1 MOL     -0.235731
     51 C17         7.1440   -2.2910    0.5770 c3        1 MOL     -0.162903
     52 C18         7.6570   -1.1160   -0.2460 c         1 MOL      0.607095
     53 O9          8.8820   -0.9000   -0.1960 o         1 MOL     -0.649233
     54 H23         5.2240   -3.1380    0.5330 hn        1 MOL      0.262759
     55 H24         7.9910   -2.9640    0.7220 h1        1 MOL      0.084636
     56 H25         6.8030   -1.8810    1.5300 h1        1 MOL      0.084636
     57 N5          6.7900   -0.3150   -0.8590 n         1 MOL     -0.180803
     58 C19         7.2420    0.8340   -1.7300 c3        1 MOL      0.047856
     59 C20         7.2490    2.1620   -0.9770 c         1 MOL      0.371038
     60 O10         7.5650    3.2190   -1.5670 o         1 MOL     -0.570930
     61 C21         6.3900    0.9410   -2.9760 c3        1 MOL     -0.286639
     62 C22         4.9540    1.2740   -2.6500 c         1 MOL      0.956348
     63 O11         4.0570    1.4850   -3.4710 o         1 MOL     -0.815425
     64 O12         4.6500    1.4390   -1.4710 o         1 MOL     -0.815425
     65 H26         5.7930   -0.2800   -0.6890 hn        1 MOL      0.088026
     66 H27         8.2330    0.5410   -2.0790 h1        1 MOL      0.086765
     67 H28         6.4440   -0.0100   -3.5000 hc        1 MOL      0.067110
     68 H29         6.8570    1.7260   -3.5680 hc        1 MOL      0.067110
     69 N6          6.9280    2.1200    0.2890 n         1 MOL     -0.226848
     70 C23         6.9280    3.2200    1.2810 c3        1 MOL     -0.041359
     71 C24         5.6510    3.9220    1.5130 c         1 MOL      0.540495
     72 O13         5.6750    4.9300    2.2400 o         1 MOL     -0.614466
     73 H30         6.5230    1.2480    0.5970 hn        1 MOL      0.214860
     74 H31         7.7040    3.9600    1.1200 h1        1 MOL      0.064465
     75 H32         7.1720    2.7300    2.2180 h1        1 MOL      0.064465
     76 N7          4.5480    3.5100    0.8750 n         1 MOL     -0.254640
     77 C25         3.2300    4.1880    0.9450 c3        1 MOL     -0.121861
     78 C26         2.1010    3.2040    1.1640 c         1 MOL      0.543698
     79 O14         2.1790    2.0510    0.7650 o         1 MOL     -0.604620
     80 C27         3.0340    5.1200   -0.2350 c3        1 MOL     -0.016980
     81 C28         3.7060    6.4810   -0.0930 c3        1 MOL     -0.172596
     82 C29         3.4150    7.4710   -1.2360 c         1 MOL      0.661249
     83 N8          3.7030    7.0360   -2.4960 n         1 MOL     -0.858838
     84 O15         3.0090    8.6150   -1.0230 o         1 MOL     -0.578116
     85 H33         4.5540    2.6410    0.3520 hn        1 MOL      0.290019
     86 H34         3.1810    4.7850    1.8670 h1        1 MOL      0.094623
     87 H35         2.0010    5.3880   -0.4400 hc        1 MOL      0.038782
     88 H36         3.3160    4.6780   -1.1980 hc        1 MOL      0.038782
     89 H37         4.7940    6.4400   -0.0090 hc        1 MOL      0.063686
     90 H38         3.3500    6.9380    0.8230 hc        1 MOL      0.063686
     91 H39         4.3540    6.2690   -2.5170 hn        1 MOL      0.384573
     92 H40         3.5600    7.7020   -3.2380 hn        1 MOL      0.384573
     93 N9          0.9810    3.6310    1.7320 n         1 MOL     -0.350611
     94 C30        -0.2380    2.7670    1.9240 c3        1 MOL      0.091258
     95 C31        -1.2630    3.1890    0.7940 c         1 MOL      0.324518
     96 O16        -1.5020    4.3710    0.5220 o         1 MOL     -0.563712
     97 C32        -0.9070    3.0370    3.3030 c3        1 MOL      0.062041
     98 C33        -2.1060    2.1040    3.5980 c3        1 MOL     -0.271160
     99 C34         0.1330    2.9530    4.4730 c3        1 MOL     -0.271160
    100 H41         0.9900    4.5750    2.0910 hn        1 MOL      0.243078
    101 H42         0.0330    1.7190    1.8680 h1        1 MOL      0.137293
    102 H43        -1.4040    4.0090    3.2890 hc        1 MOL      0.027955
    103 H44        -1.7690    1.0930    3.8670 hc        1 MOL      0.066861
    104 H45        -2.7220    2.4820    4.4020 hc        1 MOL      0.066861
    105 H46        -2.7110    1.9700    2.6960 hc        1 MOL      0.066861
    106 H47        -0.4130    3.0030    5.4200 hc        1 MOL      0.066861
    107 H48         0.7530    2.0550    4.5730 hc        1 MOL      0.066861
    108 H49         0.9390    3.6850    4.4360 hc        1 MOL      0.066861
    109 N10        -1.7900    2.1790    0.1000 n         1 MOL      0.067058
    110 C35        -2.7500    2.2640   -0.9520 c3        1 MOL      0.267872
    111 C36        -4.1910    1.8600   -0.5080 c         1 MOL      0.111905
    112 O17        -4.3380    1.1880    0.4940 o         1 MOL     -0.197867
    113 C37        -2.1970    1.5710   -2.2550 c3        1 MOL     -0.049183
    114 C38        -3.0620    1.6740   -3.5120 c         1 MOL      0.621972
    115 N11        -3.6470    2.8170   -3.8520 n         1 MOL     -0.791073
    116 O18        -3.1700    0.6000   -4.0840 o         1 MOL     -0.521258
    117 H50        -1.1020    1.4470   -0.0150 hn        1 MOL      0.031557
    118 H51        -2.7440    3.2730   -1.3550 h1        1 MOL     -0.065170
    119 H52        -1.9640    0.5290   -2.0720 hc        1 MOL      0.026327
    120 H53        -1.2520    2.0470   -2.4970 hc        1 MOL      0.026327
    121 H54        -3.5070    3.6960   -3.3780 hn        1 MOL      0.354702
    122 H55        -4.3230    2.8370   -4.6120 hn        1 MOL      0.354702
    123 N12        -5.2460    2.2560   -1.1940 n         1 MOL     -0.430541
    124 C39        -6.5670    1.8430   -0.6500 c3        1 MOL      0.233380
    125 C40        -6.9040    0.3440   -0.5540 c         1 MOL      0.588711
    126 O19        -7.3550   -0.1410    0.5070 o         1 MOL     -0.502516
    127 C41        -7.6570    2.6220   -1.3750 c3        1 MOL     -0.203651
    128 C42        -8.9590    2.5580   -0.5880 ca        1 MOL      0.056576
    129 C43        -8.9620    3.0210    0.7360 ca        1 MOL     -0.214241
    130 C44       -10.0890    1.9280   -1.1150 ca        1 MOL     -0.214241
    131 C45       -10.1600    2.9530    1.5010 ca        1 MOL     -0.210219
    132 C46       -11.1910    1.7050   -0.3740 ca        1 MOL     -0.210219
    133 C47       -11.2170    2.2510    0.8920 ca        1 MOL      0.295391
    134 O20       -12.3880    2.1620    1.6500 oh        1 MOL     -0.498108
    135 H56        -5.1140    2.8380   -2.0160 hn        1 MOL      0.248029
    136 H57        -6.6790    2.1890    0.3740 h1        1 MOL      0.079970
    137 H58        -7.7590    2.2610   -2.4040 hc        1 MOL      0.058968
    138 H59        -7.2850    3.6480   -1.3820 hc        1 MOL      0.058968
    139 H60        -8.1150    3.4970    1.2140 ha        1 MOL      0.144988
    140 H61       -10.0220    1.4710   -2.0820 ha        1 MOL      0.144988
    141 H62       -10.2890    3.4280    2.4620 ha        1 MOL      0.148256
    142 H63       -12.0290    1.0800   -0.6530 ha        1 MOL      0.148256
    143 H64       -13.0220    1.7620    1.0550 ho        1 MOL      0.332152
    144 N13        -6.4660   -0.5090   -1.5030 n         1 MOL     -0.518273
    145 C48        -6.5180   -1.9410   -1.4410 c3        1 MOL      0.034956
    146 C49        -5.7420   -2.4410   -0.2050 c         1 MOL      0.362539
    147 O21        -6.0200   -3.4660    0.4690 o         1 MOL     -0.522507
    148 C50        -5.8790   -2.4960   -2.7110 c3        1 MOL      0.230683
    149 C51        -6.5500   -3.7520   -3.3100 c3        1 MOL     -0.323439
    150 C52        -5.6170   -4.4820   -4.2310 c         1 MOL      0.781956
    151 O22        -5.4510   -4.1410   -5.4070 o         1 MOL     -0.740977
    152 O23        -4.9360   -5.4250   -3.8360 o         1 MOL     -0.740977
    153 H65        -6.0070   -0.1210   -2.3160 hn        1 MOL      0.273376
    154 H66        -7.5470   -2.2770   -1.3310 h1        1 MOL      0.063188
    155 H67        -4.8480   -2.7210   -2.4650 hc        1 MOL     -0.028530
    156 H68        -5.8700   -1.7090   -3.4750 hc        1 MOL     -0.028530
    157 H69        -7.5280   -3.5290   -3.7400 hc        1 MOL      0.026518
    158 H70        -6.6880   -4.5270   -2.5610 hc        1 MOL      0.026518
    159 N14        -4.6570   -1.7620    0.0810 n         1 MOL     -0.113543
    160 C53        -3.7860   -2.0610    1.2250 c3        1 MOL     -0.101740
    161 C54        -4.5250   -1.6190    2.5530 c         1 MOL      0.487953
    162 O24        -4.4220   -2.3460    3.5320 o         1 MOL     -0.559679
    163 C55        -2.3170   -1.4920    1.1150 c3        1 MOL      0.190948
    164 C56        -1.5400   -1.7970   -0.1230 c3        1 MOL     -0.076949
    165 C57        -0.1620   -1.2510   -0.1250 c         1 MOL      0.851008
    166 O25         0.8260   -1.8610   -0.5620 o         1 MOL     -0.800239
    167 O26         0.0370   -0.0840    0.1950 o         1 MOL     -0.800239
    168 H71        -4.5890   -0.8010   -0.2400 hn        1 MOL      0.071698
    169 H72        -3.7740   -3.1480    1.3190 h1        1 MOL      0.108656
    170 H73        -1.7100   -1.9330    1.8940 hc        1 MOL     -0.042793
    171 H74        -2.4000   -0.4100    1.2850 hc        1 MOL     -0.042793
    172 H75        -2.0030   -1.4720   -1.0530 hc        1 MOL      0.022075
    173 H76        -1.4450   -2.8770   -0.1780 hc        1 MOL      0.022075
    174 N15        -5.1530   -0.4520    2.5630 n         1 MOL     -0.014774
    175 C58        -5.7620    0.1650    3.7830 c3        1 MOL     -0.366611
    176 H77        -5.6480    1.2480    3.7370 h1        1 MOL      0.120669
    177 H78        -6.8210   -0.0860    3.8280 h1        1 MOL      0.120669
    178 H79        -5.2600   -0.2140    4.6720 h1        1 MOL      0.120669
    179 H80        -5.1730    0.1130    1.7260 hn        1 MOL     -0.032645
    180 Ca1         2.3320    0.1720   -1.1450 Ca        1 MOL      1.757813
    181 O27         1.7830    2.5710   -2.7100 oh        1 MOL     -0.848822
    182 O28         0.8610   -0.5550   -3.3140 oh        1 MOL     -0.848822
    183 H81         2.5480    2.3600   -3.2510 ho        1 MOL      0.403906
    184 H82         1.5530   -1.0200   -3.7810 ho        1 MOL      0.403906
    185 H83         1.6530    3.5110   -2.8410 ho        1 MOL      0.403906
    186 H84         0.4070   -0.0530   -3.9940 ho        1 MOL      0.403906
@<TRIPOS>BOND
     1    1    2 1   
     2    1    4 1   
     3    1    5 1   
     4    1    6 1   
     5    2    3 2   
     6    2    7 1   
     7    7    8 1   
     8    7   15 1   
     9    8    9 1   
    10    8   11 1   
    11    8   16 1   
    12    9   10 2   
    13    9   19 1   
    14   11   12 1   
    15   11   17 1   
    16   11   18 1   
    17   12   13 1   
    18   12   14 1   
    19   19   20 1   
    20   19   27 1   
    21   20   21 1   
    22   20   23 1   
    23   20   28 1   
    24   21   22 2   
    25   21   38 1   
    26   23   24 1   
    27   23   25 1   
    28   23   29 1   
    29   24   26 1   
    30   24   30 1   
    31   24   31 1   
    32   25   32 1   
    33   25   33 1   
    34   25   34 1   
    35   26   35 1   
    36   26   36 1   
    37   26   37 1   
    38   38   39 1   
    39   38   46 1   
    40   39   40 1   
    41   39   42 1   
    42   39   47 1   
    43   40   41 2   
    44   40   50 1   
    45   42   43 1   
    46   42   48 1   
    47   42   49 1   
    48   43   44 1   
    49   43   45 1   
    50   50   51 1   
    51   50   54 1   
    52   51   52 1   
    53   51   55 1   
    54   51   56 1   
    55   52   53 2   
    56   52   57 1   
    57   57   58 1   
    58   57   65 1   
    59   58   59 1   
    60   58   61 1   
    61   58   66 1   
    62   59   60 2   
    63   59   69 1   
    64   61   62 1   
    65   61   67 1   
    66   61   68 1   
    67   62   63 1   
    68   62   64 1   
    69   69   70 1   
    70   69   73 1   
    71   70   71 1   
    72   70   74 1   
    73   70   75 1   
    74   71   72 2   
    75   71   76 1   
    76   76   77 1   
    77   76   85 1   
    78   77   78 1   
    79   77   80 1   
    80   77   86 1   
    81   78   79 2   
    82   78   93 1   
    83   80   81 1   
    84   80   87 1   
    85   80   88 1   
    86   81   82 1   
    87   81   89 1   
    88   81   90 1   
    89   82   83 1   
    90   82   84 2   
    91   83   91 1   
    92   83   92 1   
    93   93   94 1   
    94   93  100 1   
    95   94   95 1   
    96   94   97 1   
    97   94  101 1   
    98   95   96 2   
    99   95  109 1   
   100   97   98 1   
   101   97   99 1   
   102   97  102 1   
   103   98  103 1   
   104   98  104 1   
   105   98  105 1   
   106   99  106 1   
   107   99  107 1   
   108   99  108 1   
   109  109  110 1   
   110  109  117 1   
   111  110  111 1   
   112  110  113 1   
   113  110  118 1   
   114  111  112 2   
   115  111  123 1   
   116  113  114 1   
   117  113  119 1   
   118  113  120 1   
   119  114  115 1   
   120  114  116 2   
   121  115  121 1   
   122  115  122 1   
   123  123  124 1   
   124  123  135 1   
   125  124  125 1   
   126  124  127 1   
   127  124  136 1   
   128  125  126 2   
   129  125  144 1   
   130  127  128 1   
   131  127  137 1   
   132  127  138 1   
   133  128  129 ar  
   134  128  130 ar  
   135  129  131 ar  
   136  129  139 1   
   137  130  132 ar  
   138  130  140 1   
   139  131  133 ar  
   140  131  141 1   
   141  132  133 ar  
   142  132  142 1   
   143  133  134 1   
   144  134  143 1   
   145  144  145 1   
   146  144  153 1   
   147  145  146 1   
   148  145  148 1   
   149  145  154 1   
   150  146  147 2   
   151  146  159 1   
   152  148  149 1   
   153  148  155 1   
   154  148  156 1   
   155  149  150 1   
   156  149  157 1   
   157  149  158 1   
   158  150  151 1   
   159  150  152 1   
   160  159  160 1   
   161  159  168 1   
   162  160  161 1   
   163  160  163 1   
   164  160  169 1   
   165  161  162 2   
   166  161  174 1   
   167  163  164 1   
   168  163  170 1   
   169  163  171 1   
   170  164  165 1   
   171  164  172 1   
   172  164  173 1   
   173  165  166 1   
   174  165  167 1   
   175  174  175 1   
   176  174  179 1   
   177  175  176 1   
   178  175  177 1   
   179  175  178 1   
   180  181  183 1   
   181  181  185 1   
   182  182  184 1   
   183  182  186 1   
@<TRIPOS>SUBSTRUCTURE
     1 MOL         1 TEMP              0 ****  ****    0 ROOT
