@<TRIPOS>MOLECULE
MOL
  189   185     1     0     0
SMALL
resp


@<TRIPOS>ATOM
      1 C1         -0.8080    0.9540    6.9370 c3        1 MOL     -0.342951
      2 C2         -0.9850    0.9660    5.3700 c         1 MOL      0.748098
      3 O1         -0.0230    1.2550    4.6380 o         1 MOL     -0.640886
      4 H1         -1.3130    1.8200    7.3660 hc        1 MOL      0.087519
      5 H2         -1.2420    0.0410    7.3450 hc        1 MOL      0.087519
      6 H3          0.2540    0.9940    7.1840 hc        1 MOL      0.087519
      7 N1         -2.1630    0.6890    4.8660 n         1 MOL     -0.646032
      8 C3         -2.4520    0.7540    3.3880 c3        1 MOL     -0.002811
      9 C4         -2.6140    2.2140    2.9770 c         1 MOL      0.622643
     10 O2         -3.4700    2.9610    3.4840 o         1 MOL     -0.554480
     11 C5         -3.7330    0.0140    3.0030 c3        1 MOL      0.039279
     12 C6         -4.2260    0.3380    1.5840 c         1 MOL      0.592027
     13 O3         -3.3850    0.3490    0.6650 o         1 MOL     -0.639867
     14 O4         -5.4590    0.5370    1.3510 o         1 MOL     -0.639867
     15 H4         -2.8540    0.3890    5.5450 hn        1 MOL      0.344081
     16 H5         -1.5730    0.3080    2.9240 h1        1 MOL      0.065900
     17 H6         -4.5000    0.2160    3.7440 hc        1 MOL      0.007624
     18 H7         -3.5790   -1.0730    3.0420 hc        1 MOL      0.007624
     19 N2         -1.8050    2.6240    1.9510 n         1 MOL     -0.241530
     20 C7         -1.5660    4.0390    1.6700 c3        1 MOL     -0.291466
     21 C8         -2.6930    4.7010    0.8270 c         1 MOL      0.660936
     22 O5         -2.8650    5.8670    1.0360 o         1 MOL     -0.592095
     23 C9         -0.2010    4.2220    0.9630 c3        1 MOL      0.136096
     24 C10         0.2160    5.7210    0.8320 c3        1 MOL     -0.071630
     25 C11         1.6830    5.9150    0.4740 c3        1 MOL     -0.157706
     26 C12         2.7240    5.2300    1.3790 c3        1 MOL      0.112321
     27 N3          4.1370    5.3400    0.9860 n4        1 MOL     -0.468184
     28 H8         -1.1990    1.9150    1.5680 hn        1 MOL      0.196485
     29 H9         -1.6050    4.5930    2.6090 h1        1 MOL      0.128915
     30 H10        -0.1870    3.8020   -0.0440 hc        1 MOL      0.013161
     31 H11         0.5510    3.7170    1.5640 hc        1 MOL      0.013161
     32 H12        -0.0080    6.2180    1.7750 hc        1 MOL      0.053411
     33 H13        -0.4230    6.1400    0.0590 hc        1 MOL      0.053411
     34 H14         2.0080    6.9510    0.4810 hc        1 MOL      0.057821
     35 H15         1.7120    5.6420   -0.5830 hc        1 MOL      0.057821
     36 H16         2.5670    4.1520    1.4520 hx        1 MOL      0.079462
     37 H17         2.7140    5.6190    2.3940 hx        1 MOL      0.079462
     38 H18         4.8280    5.0950    1.6700 hn        1 MOL      0.345042
     39 H19         4.2710    4.7010    0.2170 hn        1 MOL      0.345042
     40 H20         4.4120    6.2980    0.7990 hn        1 MOL      0.345042
     41 N4         -3.4540    4.0200   -0.0580 n         1 MOL     -0.410415
     42 C13        -4.3200    4.6180   -1.0580 c3        1 MOL      0.036044
     43 C14        -5.6790    3.8500   -1.1910 c         1 MOL      0.442945
     44 O6         -6.3330    3.9970   -2.2360 o         1 MOL     -0.484360
     45 C15        -3.5910    4.6880   -2.4490 c3        1 MOL     -0.130654
     46 C16        -2.7410    3.4080   -2.8470 c         1 MOL      0.682068
     47 O7         -2.2830    3.3240   -4.0180 o         1 MOL     -0.680875
     48 O8         -2.6620    2.4330   -2.0540 o         1 MOL     -0.680875
     49 H21        -3.1880    3.0590   -0.2050 hn        1 MOL      0.206496
     50 H22        -4.5570    5.6410   -0.7770 h1        1 MOL      0.087521
     51 H23        -2.9280    5.5250   -2.2110 hc        1 MOL      0.039209
     52 H24        -4.2130    4.9930   -3.2920 hc        1 MOL      0.039209
     53 N5         -6.0580    3.1450   -0.1460 n         1 MOL     -0.333574
     54 C17        -7.4240    2.6800    0.0770 c3        1 MOL     -0.034854
     55 C18        -7.8120    1.6100   -0.9440 c         1 MOL      0.341137
     56 O9         -8.8330    1.7350   -1.6340 o         1 MOL     -0.523847
     57 H25        -5.3780    2.9160    0.5700 hn        1 MOL      0.249022
     58 H26        -8.0710    3.5610    0.0330 h1        1 MOL      0.083367
     59 H27        -7.6050    2.3090    1.0800 h1        1 MOL      0.083367
     60 N6         -6.9100    0.6690   -1.2370 n         1 MOL     -0.009083
     61 C19        -7.1610   -0.5810   -1.9970 c3        1 MOL     -0.003380
     62 C20        -7.0970   -1.8790   -1.0980 c         1 MOL      0.278872
     63 O10        -7.5940   -2.9650   -1.5440 o         1 MOL     -0.478385
     64 C21        -6.2430   -0.8610   -3.2130 c3        1 MOL     -0.105748
     65 C22        -4.7900   -0.6770   -2.8590 c         1 MOL      0.539070
     66 O11        -3.9890   -0.0690   -3.5990 o         1 MOL     -0.581935
     67 O12        -4.3970   -1.1350   -1.7580 o         1 MOL     -0.581935
     68 H28        -6.0360    0.6560   -0.7340 hn        1 MOL      0.105839
     69 H29        -8.1840   -0.6240   -2.3590 h1        1 MOL      0.087913
     70 H30        -6.5540   -0.2080   -4.0220 hc        1 MOL      0.054839
     71 H31        -6.3220   -1.8740   -3.6010 hc        1 MOL      0.054839
     72 N7         -6.4800   -1.7820    0.1280 n         1 MOL     -0.025466
     73 C23        -6.4460   -2.8460    1.0970 c3        1 MOL     -0.171696
     74 C24        -5.4810   -4.0160    0.8340 c         1 MOL      0.527354
     75 O13        -5.7110   -5.2100    1.1210 o         1 MOL     -0.555138
     76 H32        -6.2000   -0.8800    0.4880 hn        1 MOL      0.089105
     77 H33        -7.4250   -3.3060    1.1930 h1        1 MOL      0.080615
     78 H34        -6.1710   -2.4170    2.0530 h1        1 MOL      0.080615
     79 N8         -4.3030   -3.5870    0.3450 n         1 MOL     -0.403755
     80 C25        -3.1230   -4.4150   -0.0320 c3        1 MOL      0.029791
     81 C26        -1.8630   -3.5290    0.1350 c         1 MOL      0.426059
     82 O14        -1.8670   -2.3330   -0.1930 o         1 MOL     -0.627863
     83 C27        -3.3230   -4.6800   -1.5700 c3        1 MOL      0.399875
     84 C28        -2.3650   -5.6820   -2.1610 c3        1 MOL     -0.354107
     85 O15        -4.5080   -5.3730   -1.6840 oh        1 MOL     -0.603661
     86 H35        -4.1780   -2.5840    0.2980 hn        1 MOL      0.283658
     87 H36        -3.0480   -5.2970    0.5990 h1        1 MOL      0.063155
     88 H37        -3.3810   -3.7330   -2.1150 h1        1 MOL      0.103911
     89 H38        -4.3570   -6.3210   -1.6240 ho        1 MOL      0.399522
     90 H39        -1.4030   -5.1620   -2.2720 hc        1 MOL      0.067294
     91 H40        -2.2840   -6.4810   -1.4240 hc        1 MOL      0.067294
     92 H41        -2.6740   -5.9810   -3.1560 hc        1 MOL      0.067294
     93 N9         -0.8310   -4.1690    0.6130 n         1 MOL     -0.342249
     94 C29         0.4670   -3.5330    0.9280 c3        1 MOL     -0.019837
     95 C30         1.4840   -3.9320   -0.0700 c         1 MOL      0.347279
     96 O16         1.8230   -5.1370   -0.2290 o         1 MOL     -0.515824
     97 C31         0.7880   -3.9540    2.3570 c3        1 MOL     -0.019041
     98 C32        -0.3220   -3.7020    3.4590 c3        1 MOL     -0.119639
     99 C33         2.1010   -3.4280    2.8040 c3        1 MOL     -0.120672
    100 C34        -0.8860   -2.2340    3.3570 c3        1 MOL     -0.047730
    101 H42        -0.9530   -5.1540    0.8220 hn        1 MOL      0.282984
    102 H43         0.2750   -2.4610    0.9200 h1        1 MOL      0.154554
    103 H44         0.8610   -5.0380    2.3900 hc        1 MOL      0.045869
    104 H45         0.1290   -3.8530    4.4420 hc        1 MOL      0.048299
    105 H46        -1.1520   -4.4170    3.3880 hc        1 MOL      0.048299
    106 H47         2.5010   -4.0800    3.5790 hc        1 MOL      0.036994
    107 H48         2.8900   -3.5550    2.0480 hc        1 MOL      0.036994
    108 H49         2.0550   -2.4420    3.2650 hc        1 MOL      0.036994
    109 H50        -0.0050   -1.6110    3.4990 hc        1 MOL      0.027146
    110 H51        -1.3490   -1.9460    2.4060 hc        1 MOL      0.027146
    111 H52        -1.6360   -2.0840    4.1340 hc        1 MOL      0.027146
    112 N10         2.1170   -2.8860   -0.6980 n         1 MOL     -0.035217
    113 C35         3.2550   -3.0300   -1.6010 c3        1 MOL     -0.112382
    114 C36         4.5230   -2.8430   -0.7570 c         1 MOL      0.387455
    115 O17         4.4950   -2.3340    0.3680 o         1 MOL     -0.279538
    116 C37         3.2220   -2.0420   -2.7470 c3        1 MOL      0.402594
    117 C38         2.0050   -2.2950   -3.7090 c3        1 MOL     -0.270053
    118 O18         3.0830   -0.7120   -2.2850 oh        1 MOL     -0.685204
    119 H53         1.7980   -1.9590   -0.4410 hn        1 MOL      0.063402
    120 H54         3.3390   -4.0620   -1.9470 h1        1 MOL      0.084511
    121 H55         4.0090   -2.1420   -3.4810 h1        1 MOL     -0.013714
    122 H56         2.3380   -0.6880   -1.6890 ho        1 MOL      0.462984
    123 H57         1.1320   -2.3870   -3.0660 hc        1 MOL      0.065842
    124 H58         1.8310   -1.4150   -4.3150 hc        1 MOL      0.065842
    125 H59         2.1070   -3.2510   -4.2200 hc        1 MOL      0.065842
    126 N11         5.7510   -3.0610   -1.2790 n         1 MOL     -0.264138
    127 C39         6.9880   -2.8740   -0.4730 c3        1 MOL     -0.391701
    128 C40         7.4020   -1.4500   -0.0580 c         1 MOL      0.375710
    129 O19         8.0290   -1.3090    1.0100 o         1 MOL     -0.480449
    130 C41         8.1010   -3.4870   -1.3320 c3        1 MOL      0.321466
    131 C42         7.9780   -4.9850   -1.3940 c3        1 MOL     -0.317602
    132 O20         8.1450   -3.0700   -2.6770 oh        1 MOL     -0.570881
    133 H60         5.7930   -3.4340   -2.2130 hn        1 MOL      0.260442
    134 H61         6.8430   -3.4370    0.4520 h1        1 MOL      0.232027
    135 H62         9.1240   -3.3420   -0.9930 h1        1 MOL      0.067067
    136 H63         8.4930   -2.1730   -2.6710 ho        1 MOL      0.366234
    137 H64         8.7970   -5.2790   -2.0550 hc        1 MOL      0.100938
    138 H65         8.2170   -5.5900   -0.5080 hc        1 MOL      0.100938
    139 H66         6.9900   -5.2880   -1.7370 hc        1 MOL      0.100938
    140 N12         7.0160   -0.4140   -0.8240 n         1 MOL     -0.211727
    141 C43         6.9940    1.0260   -0.4690 c3        1 MOL     -0.148134
    142 C44         5.8720    1.3730    0.5500 c         1 MOL      0.496016
    143 O21         5.7320    2.5620    0.8910 o         1 MOL     -0.609503
    144 C45         7.1320    1.8590   -1.7450 c3        1 MOL      0.018711
    145 C46         7.7320    3.1960   -1.6650 c3        1 MOL      0.158595
    146 C47         8.0740    3.8710   -2.9920 c3        1 MOL     -0.130384
    147 C48         8.9250    5.1530   -2.8180 c3        1 MOL      0.095998
    148 N13        10.3700    4.9860   -2.7420 n4        1 MOL     -0.306177
    149 H67         6.4210   -0.6770   -1.5920 hn        1 MOL      0.199835
    150 H68         7.9550    1.0500    0.0540 h1        1 MOL      0.126576
    151 H69         6.1420    1.9560   -2.1870 hc        1 MOL      0.026869
    152 H70         7.6680    1.2300   -2.4490 hc        1 MOL      0.026869
    153 H71         8.6930    3.1110   -1.1610 hc        1 MOL     -0.053984
    154 H72         7.0790    3.8440   -1.0740 hc        1 MOL     -0.053984
    155 H73         7.1010    4.1190   -3.4130 hc        1 MOL      0.060808
    156 H74         8.5560    3.1870   -3.6990 hc        1 MOL      0.060808
    157 H75         8.5390    5.8090   -2.0370 hx        1 MOL      0.065258
    158 H76         8.6970    5.7390   -3.7060 hx        1 MOL      0.065258
    159 H77        10.6060    4.3700   -1.9670 hn        1 MOL      0.250266
    160 H78        10.7780    4.5150   -3.5390 hn        1 MOL      0.250266
    161 H79        10.8200    5.8530   -2.4920 hn        1 MOL      0.250266
    162 N14         4.9980    0.4360    0.9360 n         1 MOL     -0.010526
    163 C49         4.0900    0.5980    2.1220 c3        1 MOL     -0.344659
    164 C50         4.2590   -0.3210    3.3070 c         1 MOL      0.532750
    165 O22         4.0130    0.0480    4.4310 o         1 MOL     -0.523504
    166 C51         2.6720    0.2510    1.7130 c3        1 MOL      0.078810
    167 C52         2.2330    1.1460    0.5070 c3        1 MOL     -0.111885
    168 C53         0.8540    0.6260   -0.0870 c         1 MOL      0.545986
    169 O23         0.8890   -0.3810   -0.9100 o         1 MOL     -0.660028
    170 O24        -0.2330    1.1870    0.2150 o         1 MOL     -0.660028
    171 H80         5.0030   -0.5010    0.5710 hn        1 MOL      0.008474
    172 H81         4.2940    1.6320    2.3950 h1        1 MOL      0.165083
    173 H82         1.9680    0.3500    2.5440 hc        1 MOL      0.099220
    174 H83         2.5840   -0.7750    1.3460 hc        1 MOL      0.099220
    175 H84         2.9200    1.1160   -0.3280 hc        1 MOL      0.013104
    176 H85         2.1280    2.1250    0.9800 hc        1 MOL      0.013104
    177 N15         4.8630   -1.4770    3.0900 n         1 MOL     -0.217871
    178 C54         5.1480   -2.5480    4.0580 c3        1 MOL     -0.169623
    179 H86         5.6810   -3.3570    3.5570 h1        1 MOL      0.086468
    180 H87         5.7640   -2.1540    4.8660 h1        1 MOL      0.086468
    181 H88         4.2130   -2.9290    4.4670 h1        1 MOL      0.086468
    182 H89         4.9930   -1.8310    2.1530 hn        1 MOL      0.168953
    183 Ca1        -1.9470    0.0470   -1.5310 Ca        1 MOL      1.697341
    184 O25        -1.4180   -1.6500   -3.5840 oh        1 MOL     -0.802322
    185 H90        -1.0320   -1.0770   -4.2380 ho        1 MOL      0.387785
    186 H91        -1.8420   -2.3520   -4.0930 ho        1 MOL      0.387785
    187 O26        -0.4640    1.0010   -3.3970 oh        1 MOL     -0.802322
    188 H92         0.4870    0.9960   -3.5180 ho        1 MOL      0.387785
    189 H93        -0.7160    1.9240   -3.5140 ho        1 MOL      0.387785
@<TRIPOS>BOND
     1    1    2 1   
     2    1    4 1   
     3    1    5 1   
     4    1    6 1   
     5    2    3 2   
     6    2    7 1   
     7    7    8 1   
     8    7   15 1   
     9    8    9 1   
    10    8   11 1   
    11    8   16 1   
    12    9   10 2   
    13    9   19 1   
    14   11   12 1   
    15   11   17 1   
    16   11   18 1   
    17   12   13 1   
    18   12   14 1   
    19   19   20 1   
    20   19   28 1   
    21   20   21 1   
    22   20   23 1   
    23   20   29 1   
    24   21   22 2   
    25   21   41 1   
    26   23   24 1   
    27   23   30 1   
    28   23   31 1   
    29   24   25 1   
    30   24   32 1   
    31   24   33 1   
    32   25   26 1   
    33   25   34 1   
    34   25   35 1   
    35   26   27 1   
    36   26   36 1   
    37   26   37 1   
    38   27   38 1   
    39   27   39 1   
    40   27   40 1   
    41   41   42 1   
    42   41   49 1   
    43   42   43 1   
    44   42   45 1   
    45   42   50 1   
    46   43   44 2   
    47   43   53 1   
    48   45   46 1   
    49   45   51 1   
    50   45   52 1   
    51   46   47 1   
    52   46   48 1   
    53   53   54 1   
    54   53   57 1   
    55   54   55 1   
    56   54   58 1   
    57   54   59 1   
    58   55   56 2   
    59   55   60 1   
    60   60   61 1   
    61   60   68 1   
    62   61   62 1   
    63   61   64 1   
    64   61   69 1   
    65   62   63 2   
    66   62   72 1   
    67   64   65 1   
    68   64   70 1   
    69   64   71 1   
    70   65   66 1   
    71   65   67 1   
    72   72   73 1   
    73   72   76 1   
    74   73   74 1   
    75   73   77 1   
    76   73   78 1   
    77   74   75 2   
    78   74   79 1   
    79   79   80 1   
    80   79   86 1   
    81   80   81 1   
    82   80   83 1   
    83   80   87 1   
    84   81   82 2   
    85   81   93 1   
    86   83   84 1   
    87   83   85 1   
    88   83   88 1   
    89   84   90 1   
    90   84   91 1   
    91   84   92 1   
    92   85   89 1   
    93   93   94 1   
    94   93  101 1   
    95   94   95 1   
    96   94   97 1   
    97   94  102 1   
    98   95   96 2   
    99   95  112 1   
   100   97   98 1   
   101   97   99 1   
   102   97  103 1   
   103   98  100 1   
   104   98  104 1   
   105   98  105 1   
   106   99  106 1   
   107   99  107 1   
   108   99  108 1   
   109  100  109 1   
   110  100  110 1   
   111  100  111 1   
   112  112  113 1   
   113  112  119 1   
   114  113  114 1   
   115  113  116 1   
   116  113  120 1   
   117  114  115 2   
   118  114  126 1   
   119  116  117 1   
   120  116  118 1   
   121  116  121 1   
   122  117  123 1   
   123  117  124 1   
   124  117  125 1   
   125  118  122 1   
   126  126  127 1   
   127  126  133 1   
   128  127  128 1   
   129  127  130 1   
   130  127  134 1   
   131  128  129 2   
   132  128  140 1   
   133  130  131 1   
   134  130  132 1   
   135  130  135 1   
   136  131  137 1   
   137  131  138 1   
   138  131  139 1   
   139  132  136 1   
   140  140  141 1   
   141  140  149 1   
   142  141  142 1   
   143  141  144 1   
   144  141  150 1   
   145  142  143 2   
   146  142  162 1   
   147  144  145 1   
   148  144  151 1   
   149  144  152 1   
   150  145  146 1   
   151  145  153 1   
   152  145  154 1   
   153  146  147 1   
   154  146  155 1   
   155  146  156 1   
   156  147  148 1   
   157  147  157 1   
   158  147  158 1   
   159  148  159 1   
   160  148  160 1   
   161  148  161 1   
   162  162  163 1   
   163  162  171 1   
   164  163  164 1   
   165  163  166 1   
   166  163  172 1   
   167  164  165 2   
   168  164  177 1   
   169  166  167 1   
   170  166  173 1   
   171  166  174 1   
   172  167  168 1   
   173  167  175 1   
   174  167  176 1   
   175  168  169 1   
   176  168  170 1   
   177  177  178 1   
   178  177  182 1   
   179  178  179 1   
   180  178  180 1   
   181  178  181 1   
   182  184  185 1   
   183  184  186 1   
   184  187  188 1   
   185  187  189 1   
@<TRIPOS>SUBSTRUCTURE
     1 MOL         1 TEMP              0 ****  ****    0 ROOT
