@<TRIPOS>MOLECULE
MOL
  179   176     1     0     0
SMALL
resp


@<TRIPOS>ATOM
      1 C1          2.6480    2.1620    5.4930 c3        1 MOL     -0.420407
      2 C2          2.0840    2.0580    4.1170 c         1 MOL      0.744432
      3 O1          2.6210    1.3010    3.3130 o         1 MOL     -0.599015
      4 H1          3.5270    2.8070    5.4760 hc        1 MOL      0.108358
      5 H2          1.8990    2.5860    6.1620 hc        1 MOL      0.108358
      6 H3          2.9320    1.1710    5.8460 hc        1 MOL      0.108358
      7 N1          0.8890    2.6170    3.8940 n         1 MOL     -0.710623
      8 C3          0.1010    2.4400    2.6450 c3        1 MOL      0.038581
      9 C4          0.3100    3.6960    1.7950 c         1 MOL      0.599360
     10 O2         -0.1230    4.7990    2.1610 o         1 MOL     -0.608792
     11 C5         -1.3140    2.1310    2.9090 c3        1 MOL      0.057008
     12 C6         -2.0140    1.8080    1.5140 c         1 MOL      0.605811
     13 O3         -3.1790    1.4340    1.5960 o         1 MOL     -0.683332
     14 O4         -1.2880    1.9260    0.4660 o         1 MOL     -0.683332
     15 H4          0.4640    3.1080    4.6690 hn        1 MOL      0.370916
     16 H5          0.4330    1.6110    2.0320 h1        1 MOL      0.020906
     17 H6         -1.6550    2.9620    3.5380 hc        1 MOL     -0.006148
     18 H7         -1.4890    1.2320    3.5070 hc        1 MOL     -0.006148
     19 N2          0.9530    3.6550    0.6160 n         1 MOL     -0.444818
     20 C7          1.3820    4.8400   -0.2720 c3        1 MOL      0.046225
     21 C8          0.5690    5.0410   -1.5600 c         1 MOL      0.511542
     22 O5          0.9560    5.9030   -2.3390 o         1 MOL     -0.545255
     23 C9          2.8840    4.5050   -0.5000 c3        1 MOL     -0.177519
     24 C10         3.7820    5.7610   -0.5970 c3        1 MOL     -0.144718
     25 C11         4.6060    6.0640    0.6850 c3        1 MOL     -0.169474
     26 C12         3.6940    6.2820    1.9470 c3        1 MOL      0.051348
     27 N3          4.4850    6.0210    3.1290 n4        1 MOL     -0.377119
     28 H8          1.0380    2.7080    0.2620 hn        1 MOL      0.301343
     29 H9          1.2780    5.7420    0.3190 h1        1 MOL      0.052468
     30 H10         2.9440    3.9940   -1.4670 hc        1 MOL      0.129841
     31 H11         3.1610    3.8430    0.3210 hc        1 MOL      0.129841
     32 H12         3.1960    6.6400   -0.8850 hc        1 MOL      0.094170
     33 H13         4.3710    5.7110   -1.5100 hc        1 MOL      0.094170
     34 H14         5.4180    6.7820    0.5290 hc        1 MOL      0.080767
     35 H15         5.1840    5.1600    0.8710 hc        1 MOL      0.080767
     36 H16         2.8450    5.6060    1.9150 hx        1 MOL      0.102031
     37 H17         3.3730    7.3120    2.1060 hx        1 MOL      0.102031
     38 H18         5.2980    6.6150    3.0710 hn        1 MOL      0.327416
     39 H19         3.9090    6.0970    3.9600 hn        1 MOL      0.327416
     40 H20         4.8010    5.0700    3.2210 hn        1 MOL      0.327416
     41 N4         -0.5380    4.3670   -1.7310 n         1 MOL     -0.226470
     42 C13        -1.6320    4.7820   -2.6590 c3        1 MOL     -0.171988
     43 C14        -3.0150    4.7210   -2.0430 c         1 MOL      0.648641
     44 O6         -3.9700    5.0130   -2.7130 o         1 MOL     -0.523971
     45 C15        -1.5040    4.0010   -3.9700 c3        1 MOL     -0.041455
     46 C16        -1.5170    2.5040   -3.9120 c         1 MOL      0.732598
     47 O7         -1.1090    1.8860   -4.8760 o         1 MOL     -0.699111
     48 O8         -2.0360    1.8640   -2.9470 o         1 MOL     -0.699111
     49 H21        -0.7900    3.6610   -1.0470 hn        1 MOL      0.122312
     50 H22        -1.4120    5.8180   -2.9310 h1        1 MOL      0.130386
     51 H23        -0.5950    4.3230   -4.4850 hc        1 MOL      0.035630
     52 H24        -2.2780    4.3550   -4.6560 hc        1 MOL      0.035630
     53 N5         -3.0380    4.5270   -0.7010 n         1 MOL     -0.577384
     54 C17        -4.1980    4.6220    0.2160 c3        1 MOL      0.135790
     55 C18        -5.3800    3.6830    0.0190 c         1 MOL      0.364971
     56 O9         -6.5210    3.9930    0.4170 o         1 MOL     -0.562925
     57 H25        -2.1900    4.1980   -0.2640 hn        1 MOL      0.329446
     58 H26        -4.6550    5.5980    0.3480 h1        1 MOL      0.053171
     59 H27        -3.8660    4.3960    1.2260 h1        1 MOL      0.053171
     60 N6         -5.1730    2.5290   -0.5680 n         1 MOL      0.025257
     61 C19        -6.2350    1.6100   -1.0530 c3        1 MOL     -0.235174
     62 C20        -6.6430    0.6050   -0.0070 c         1 MOL      0.482859
     63 O10        -7.6250   -0.1680   -0.1930 o         1 MOL     -0.568512
     64 C21        -5.7380    1.0280   -2.4270 c3        1 MOL     -0.102873
     65 C22        -4.8560   -0.1330   -2.2950 c         1 MOL      0.642787
     66 N7         -5.1660   -1.2570   -2.9600 n         1 MOL     -0.747416
     67 O11        -3.9180   -0.1600   -1.5050 o         1 MOL     -0.688585
     68 H28        -4.2520    2.3930   -0.9660 hn        1 MOL      0.049805
     69 H29        -7.1300    2.1950   -1.2380 h1        1 MOL      0.181594
     70 H30        -5.2610    1.7880   -3.0400 hc        1 MOL      0.081171
     71 H31        -6.6480    0.7160   -2.9370 hc        1 MOL      0.081171
     72 H32        -6.0760   -1.3070   -3.3800 hn        1 MOL      0.350326
     73 H33        -4.7240   -2.0880   -2.5730 hn        1 MOL      0.350326
     74 N8         -6.0040    0.6010    1.1300 n         1 MOL     -0.194940
     75 C23        -6.3270   -0.2520    2.3020 c3        1 MOL     -0.213835
     76 C24        -5.5170   -1.5130    2.4250 c         1 MOL      0.519217
     77 O12        -5.8250   -2.3840    3.3050 o         1 MOL     -0.555828
     78 H34        -5.2000    1.2150    1.1770 hn        1 MOL      0.239597
     79 H35        -7.3700   -0.5790    2.3750 h1        1 MOL      0.128052
     80 H36        -6.1280    0.2850    3.2350 h1        1 MOL      0.128052
     81 N9         -4.4120   -1.5700    1.6930 n         1 MOL     -0.406099
     82 C25        -3.4720   -2.7030    1.6280 c3        1 MOL      0.310450
     83 C26        -2.0630   -2.2110    1.6350 c         1 MOL      0.239430
     84 O13        -1.7270   -1.1750    1.0880 o         1 MOL     -0.524173
     85 C27        -3.8300   -3.4270    0.2810 c3        1 MOL     -0.003676
     86 C28        -5.1860   -4.1410    0.1900 ca        1 MOL     -0.222091
     87 C29        -6.3380   -3.3890   -0.2800 ca        1 MOL      0.035347
     88 C30        -5.2830   -5.5360    0.4970 ca        1 MOL      0.035347
     89 C31        -7.5010   -4.1290   -0.5170 ca        1 MOL     -0.372551
     90 C32        -6.5290   -6.2140    0.2920 ca        1 MOL     -0.372551
     91 C33        -7.6110   -5.4830   -0.1620 ca        1 MOL      0.450714
     92 O14        -8.8850   -6.0220   -0.2520 oh        1 MOL     -0.542501
     93 H37        -4.0280   -0.7320    1.2860 hn        1 MOL      0.354121
     94 H38        -3.6920   -3.4300    2.4210 h1        1 MOL      0.020925
     95 H39        -3.0770   -4.1560    0.0230 hc        1 MOL      0.023096
     96 H40        -3.7540   -2.6260   -0.4580 hc        1 MOL      0.023096
     97 H41        -6.2970   -2.3960   -0.7130 ha        1 MOL      0.101123
     98 H42        -4.4690   -6.1250    0.9110 ha        1 MOL      0.101123
     99 H43        -8.3220   -3.5590   -0.9390 ha        1 MOL      0.170564
    100 H44        -6.7580   -7.2580    0.4120 ha        1 MOL      0.170564
    101 H45        -9.5330   -5.3190   -0.3270 ho        1 MOL      0.380935
    102 N10        -1.0600   -3.0350    2.0260 n         1 MOL     -0.375113
    103 C34         0.4690   -2.7750    1.9030 c3        1 MOL      0.077182
    104 C35         1.0060   -3.7470    0.8820 c         1 MOL      0.495279
    105 O15         0.7560   -4.9700    0.9840 o         1 MOL     -0.567529
    106 C36         1.1290   -3.0130    3.2950 c3        1 MOL     -0.038385
    107 C37         0.3770   -2.3770    4.5000 c3        1 MOL      0.061135
    108 C38         2.5590   -2.5640    3.2390 c3        1 MOL     -0.252712
    109 C39        -0.0670   -0.9380    4.2670 c3        1 MOL      0.134507
    110 H46        -1.3160   -3.9130    2.4600 hn        1 MOL      0.271801
    111 H47         0.6410   -1.7440    1.5830 h1        1 MOL      0.133449
    112 H48         1.1880   -4.0810    3.4990 hc        1 MOL      0.043587
    113 H49         0.8180   -2.4620    5.4960 hc        1 MOL     -0.025593
    114 H50        -0.5240   -2.9800    4.5890 hc        1 MOL     -0.025593
    115 H51         2.6180   -1.6210    2.6950 hc        1 MOL      0.068620
    116 H52         2.9530   -2.5650    4.2570 hc        1 MOL      0.068620
    117 H53         3.1760   -3.2880    2.6850 hc        1 MOL      0.068620
    118 H54         0.6170   -0.4300    3.5840 hc        1 MOL     -0.012284
    119 H55        -1.0840   -0.9920    3.8860 hc        1 MOL     -0.012284
    120 H56        -0.1540   -0.4750    5.2510 hc        1 MOL     -0.012284
    121 N11         1.9340   -3.2240    0.0370 n         1 MOL     -0.189545
    122 C40         2.7650   -3.9430   -0.8960 c3        1 MOL      0.163446
    123 C41         4.1780   -3.9510   -0.5370 c         1 MOL      0.228209
    124 O16         4.5840   -3.0020    0.1390 o         1 MOL     -0.300938
    125 C42         2.4660   -3.5780   -2.3870 c3        1 MOL      0.185896
    126 O17         1.1060   -3.8250   -2.7310 oh        1 MOL     -0.616102
    127 H57         2.0030   -2.2230    0.1120 hn        1 MOL      0.157190
    128 H58         2.4700   -4.9920   -0.8880 h1        1 MOL      0.045538
    129 H59         3.2000   -4.1300   -2.9870 h1        1 MOL     -0.005010
    130 H60         2.6380   -2.5110   -2.5030 h1        1 MOL     -0.005010
    131 H61         0.9030   -3.5510   -3.6240 ho        1 MOL      0.418578
    132 N12         5.0000   -4.8710   -1.0740 n         1 MOL     -0.366056
    133 C43         6.4270   -4.8000   -0.8510 c3        1 MOL      0.128570
    134 C44         7.1790   -3.4880   -1.2950 c         1 MOL      0.426627
    135 O18         8.0050   -2.9470   -0.6200 o         1 MOL     -0.507158
    136 C45         6.9990   -6.0120   -1.6010 c3        1 MOL     -0.388268
    137 H62         4.6300   -5.6050   -1.6470 hn        1 MOL      0.295114
    138 H63         6.6830   -4.7710    0.1970 h1        1 MOL      0.088459
    139 H64         8.0490   -5.8630   -1.8500 hc        1 MOL      0.117516
    140 H65         6.9270   -6.9020   -0.9900 hc        1 MOL      0.117516
    141 H66         6.5720   -6.2750   -2.5730 hc        1 MOL      0.117516
    142 N13         6.7170   -2.8650   -2.3880 n         1 MOL     -0.341839
    143 C46         7.3850   -1.5870   -2.8980 c3        1 MOL      0.159082
    144 C47         7.0990   -0.3690   -1.9550 c         1 MOL      0.300326
    145 O19         7.8070    0.6870   -1.8950 o         1 MOL     -0.493779
    146 C48         6.9600   -1.3560   -4.3330 c3        1 MOL     -0.252427
    147 H67         6.0670   -3.3880   -2.9620 hn        1 MOL      0.205880
    148 H68         8.4630   -1.6740   -2.9890 h1        1 MOL      0.097828
    149 H69         5.9900   -1.8240   -4.5020 hc        1 MOL      0.076401
    150 H70         6.6990   -0.3080   -4.4580 hc        1 MOL      0.076401
    151 H71         7.6540   -1.7400   -5.0780 hc        1 MOL      0.076401
    152 N14         6.0240   -0.5360   -1.1050 n         1 MOL     -0.036405
    153 C49         5.5990    0.4280   -0.0370 c3        1 MOL     -0.244926
    154 C50         6.2050    0.0870    1.3150 c         1 MOL      0.575281
    155 O20         6.5420    0.9260    2.1250 o         1 MOL     -0.580903
    156 C51         4.0800    0.3870    0.1740 c3        1 MOL      0.029997
    157 C52         3.2870    0.4800   -1.1640 c3        1 MOL     -0.000731
    158 C53         1.7810    0.4440   -1.0810 c         1 MOL      0.767012
    159 O21         1.0660    1.3810   -1.4450 o         1 MOL     -0.774062
    160 O22         1.1510   -0.5750   -0.6680 o         1 MOL     -0.774062
    161 H72         5.4790   -1.3860   -1.1940 hn        1 MOL      0.106369
    162 H73         5.8760    1.4020   -0.4500 h1        1 MOL      0.129630
    163 H74         3.6350    1.2000    0.7630 hc        1 MOL      0.009896
    164 H75         3.7470   -0.5300    0.6550 hc        1 MOL      0.009896
    165 H76         3.5970   -0.3330   -1.8330 hc        1 MOL     -0.030504
    166 H77         3.5560    1.4430   -1.5810 hc        1 MOL     -0.030504
    167 N15         6.2950   -1.1810    1.6160 n         1 MOL     -0.144569
    168 C54         7.1190   -1.5730    2.7320 c3        1 MOL     -0.224946
    169 H78         7.9690   -0.8960    2.8110 h1        1 MOL      0.092373
    170 H79         6.5330   -1.5280    3.6500 h1        1 MOL      0.092373
    171 H80         7.4770   -2.5910    2.5800 h1        1 MOL      0.092373
    172 H81         5.5630   -1.8070    1.3230 hn        1 MOL      0.141584
    173 Ca1        -1.2450   -0.0200   -1.3130 Ca        1 MOL      1.793194
    174 O23        -1.2490   -2.7320   -1.3580 oh        1 MOL     -0.908952
    175 H82        -0.3440   -2.9830   -1.5570 ho        1 MOL      0.423100
    176 H83        -1.7900   -3.3300   -1.8720 ho        1 MOL      0.423100
    177 O24        -1.3740   -0.7700   -3.8020 oh        1 MOL     -0.908952
    178 H84        -1.4860    0.0350   -4.3150 ho        1 MOL      0.423100
    179 H85        -1.8210   -1.4430   -4.3000 ho        1 MOL      0.423100
@<TRIPOS>BOND
     1    1    2 1   
     2    1    4 1   
     3    1    5 1   
     4    1    6 1   
     5    2    3 2   
     6    2    7 1   
     7    7    8 1   
     8    7   15 1   
     9    8    9 1   
    10    8   11 1   
    11    8   16 1   
    12    9   10 2   
    13    9   19 1   
    14   11   12 1   
    15   11   17 1   
    16   11   18 1   
    17   12   13 1   
    18   12   14 1   
    19   19   20 1   
    20   19   28 1   
    21   20   21 1   
    22   20   23 1   
    23   20   29 1   
    24   21   22 2   
    25   21   41 1   
    26   23   24 1   
    27   23   30 1   
    28   23   31 1   
    29   24   25 1   
    30   24   32 1   
    31   24   33 1   
    32   25   26 1   
    33   25   34 1   
    34   25   35 1   
    35   26   27 1   
    36   26   36 1   
    37   26   37 1   
    38   27   38 1   
    39   27   39 1   
    40   27   40 1   
    41   41   42 1   
    42   41   49 1   
    43   42   43 1   
    44   42   45 1   
    45   42   50 1   
    46   43   44 2   
    47   43   53 1   
    48   45   46 1   
    49   45   51 1   
    50   45   52 1   
    51   46   47 1   
    52   46   48 1   
    53   53   54 1   
    54   53   57 1   
    55   54   55 1   
    56   54   58 1   
    57   54   59 1   
    58   55   56 2   
    59   55   60 1   
    60   60   61 1   
    61   60   68 1   
    62   61   62 1   
    63   61   64 1   
    64   61   69 1   
    65   62   63 2   
    66   62   74 1   
    67   64   65 1   
    68   64   70 1   
    69   64   71 1   
    70   65   66 1   
    71   65   67 2   
    72   66   72 1   
    73   66   73 1   
    74   74   75 1   
    75   74   78 1   
    76   75   76 1   
    77   75   79 1   
    78   75   80 1   
    79   76   77 2   
    80   76   81 1   
    81   81   82 1   
    82   81   93 1   
    83   82   83 1   
    84   82   85 1   
    85   82   94 1   
    86   83   84 2   
    87   83  102 1   
    88   85   86 1   
    89   85   95 1   
    90   85   96 1   
    91   86   87 ar  
    92   86   88 ar  
    93   87   89 ar  
    94   87   97 1   
    95   88   90 ar  
    96   88   98 1   
    97   89   91 ar  
    98   89   99 1   
    99   90   91 ar  
   100   90  100 1   
   101   91   92 1   
   102   92  101 1   
   103  102  103 1   
   104  102  110 1   
   105  103  104 1   
   106  103  106 1   
   107  103  111 1   
   108  104  105 2   
   109  104  121 1   
   110  106  107 1   
   111  106  108 1   
   112  106  112 1   
   113  107  109 1   
   114  107  113 1   
   115  107  114 1   
   116  108  115 1   
   117  108  116 1   
   118  108  117 1   
   119  109  118 1   
   120  109  119 1   
   121  109  120 1   
   122  121  122 1   
   123  121  127 1   
   124  122  123 1   
   125  122  125 1   
   126  122  128 1   
   127  123  124 2   
   128  123  132 1   
   129  125  126 1   
   130  125  129 1   
   131  125  130 1   
   132  126  131 1   
   133  132  133 1   
   134  132  137 1   
   135  133  134 1   
   136  133  136 1   
   137  133  138 1   
   138  134  135 2   
   139  134  142 1   
   140  136  139 1   
   141  136  140 1   
   142  136  141 1   
   143  142  143 1   
   144  142  147 1   
   145  143  144 1   
   146  143  146 1   
   147  143  148 1   
   148  144  145 2   
   149  144  152 1   
   150  146  149 1   
   151  146  150 1   
   152  146  151 1   
   153  152  153 1   
   154  152  161 1   
   155  153  154 1   
   156  153  156 1   
   157  153  162 1   
   158  154  155 2   
   159  154  167 1   
   160  156  157 1   
   161  156  163 1   
   162  156  164 1   
   163  157  158 1   
   164  157  165 1   
   165  157  166 1   
   166  158  159 1   
   167  158  160 1   
   168  167  168 1   
   169  167  172 1   
   170  168  169 1   
   171  168  170 1   
   172  168  171 1   
   173  174  175 1   
   174  174  176 1   
   175  177  178 1   
   176  177  179 1   
@<TRIPOS>SUBSTRUCTURE
     1 MOL         1 TEMP              0 ****  ****    0 ROOT
