@<TRIPOS>MOLECULE
MOL
  189   185     1     0     0
SMALL
resp


@<TRIPOS>ATOM
      1 C1         -1.4930   -0.4940    7.0330 c3        1 MOL     -0.278092
      2 C2         -1.3610   -0.2540    5.5020 c         1 MOL      0.734980
      3 O1         -0.2710   -0.1960    5.0090 o         1 MOL     -0.611851
      4 H1         -2.4720   -0.1530    7.3710 hc        1 MOL      0.067602
      5 H2         -1.3860   -1.5580    7.2450 hc        1 MOL      0.067602
      6 H3         -0.7150    0.0610    7.5560 hc        1 MOL      0.067602
      7 N1         -2.4400   -0.2700    4.7510 n         1 MOL     -0.571483
      8 C3         -2.5980    0.1780    3.3810 c3        1 MOL      0.132251
      9 C4         -2.8620    1.6960    3.2940 c         1 MOL      0.462235
     10 O2         -3.6260    2.2920    4.0900 o         1 MOL     -0.579837
     11 C5         -3.6630   -0.6560    2.6080 c3        1 MOL     -0.232403
     12 C6         -4.1380    0.0860    1.2840 c         1 MOL      0.659467
     13 O3         -5.3290   -0.0050    0.9360 o         1 MOL     -0.614608
     14 O4         -3.3250    0.6300    0.5140 o         1 MOL     -0.614608
     15 H4         -3.3240   -0.5510    5.1630 hn        1 MOL      0.309342
     16 H5         -1.6710    0.0520    2.8160 h1        1 MOL      0.074483
     17 H6         -4.5580   -0.7290    3.2330 hc        1 MOL      0.052873
     18 H7         -3.3240   -1.6880    2.5300 hc        1 MOL      0.052873
     19 N2         -2.1630    2.4270    2.4570 n         1 MOL     -0.076811
     20 C7         -2.0190    3.9380    2.5790 c3        1 MOL     -0.114209
     21 C8         -2.9900    4.6050    1.5680 c         1 MOL      0.506276
     22 O5         -3.2410    5.8160    1.7120 o         1 MOL     -0.544551
     23 C9         -0.5170    4.2930    2.2950 c3        1 MOL     -0.233558
     24 C10        -0.2240    4.6150    0.8080 c3        1 MOL      0.033006
     25 C11         1.2740    4.9550    0.5980 c3        1 MOL      0.004859
     26 C12         1.6650    5.2660   -0.8720 c3        1 MOL     -0.140552
     27 N3          1.0880    4.3290   -1.8680 n4        1 MOL     -0.286148
     28 H8         -1.5700    1.9670    1.7890 hn        1 MOL      0.084140
     29 H9         -2.3990    4.2720    3.5470 h1        1 MOL      0.136402
     30 H10         0.1070    3.4790    2.6710 hc        1 MOL      0.095973
     31 H11        -0.2090    5.1470    2.8980 hc        1 MOL      0.095973
     32 H12        -0.7750    5.5090    0.5280 hc        1 MOL      0.061756
     33 H13        -0.5960    3.7540    0.2580 hc        1 MOL      0.061756
     34 H14         1.8880    4.1370    0.9880 hc        1 MOL      0.027744
     35 H15         1.6070    5.7920    1.2210 hc        1 MOL      0.027744
     36 H16         2.7490    5.3070   -0.9570 hx        1 MOL      0.101482
     37 H17         1.2080    6.2350   -1.0640 hx        1 MOL      0.101482
     38 H18         0.0910    4.2650   -1.7100 hn        1 MOL      0.292375
     39 H19         1.3160    4.6690   -2.7910 hn        1 MOL      0.292375
     40 H20         1.4880    3.4190   -1.6660 hn        1 MOL      0.292375
     41 N4         -3.5100    3.8100    0.6410 n         1 MOL     -0.157310
     42 C13        -4.1870    4.3630   -0.4620 c3        1 MOL     -0.113407
     43 C14        -5.6530    4.0540   -0.3220 c         1 MOL      0.633076
     44 O6         -6.5270    4.8010   -0.6650 o         1 MOL     -0.549934
     45 C15        -3.6880    3.6780   -1.8030 c3        1 MOL     -0.077979
     46 C16        -2.1290    3.8340   -1.9720 c         1 MOL      0.727243
     47 O7         -1.5880    4.8760   -2.3630 o         1 MOL     -0.682865
     48 O8         -1.4680    2.7760   -1.8130 o         1 MOL     -0.682865
     49 H21        -3.2000    2.8480    0.6400 hn        1 MOL     -0.067185
     50 H22        -4.1020    5.4480   -0.5780 h1        1 MOL      0.095705
     51 H23        -4.1350    4.1630   -2.6670 hc        1 MOL      0.025863
     52 H24        -3.8950    2.6110   -1.7060 hc        1 MOL      0.025863
     53 N5         -6.0380    2.9000    0.3170 n         1 MOL     -0.437236
     54 C17        -7.3450    2.3170    0.2560 c3        1 MOL     -0.083647
     55 C18        -7.6540    1.3170   -0.9110 c         1 MOL      0.470334
     56 O9         -8.8370    0.9240   -1.1550 o         1 MOL     -0.564956
     57 H25        -5.2650    2.2670    0.4910 hn        1 MOL      0.299257
     58 H26        -8.1370    3.0620    0.1630 h1        1 MOL      0.104596
     59 H27        -7.5740    1.7440    1.1480 h1        1 MOL      0.104596
     60 N6         -6.5960    0.7330   -1.5610 n         1 MOL     -0.323560
     61 C19        -6.7600   -0.3680   -2.6030 c3        1 MOL      0.092782
     62 C20        -6.9670   -1.8000   -2.0650 c         1 MOL      0.382747
     63 O10        -7.4470   -2.6260   -2.8610 o         1 MOL     -0.540032
     64 C21        -5.6550   -0.2640   -3.6740 c3        1 MOL     -0.402482
     65 C22        -4.3010   -0.1980   -3.0430 c         1 MOL      0.772977
     66 O11        -3.4990    0.6470   -3.4770 o         1 MOL     -0.732800
     67 O12        -3.8900   -0.9860   -2.1890 o         1 MOL     -0.732800
     68 H28        -5.7100    0.8110   -1.0750 hn        1 MOL      0.185547
     69 H29        -7.6560   -0.1390   -3.1810 h1        1 MOL      0.106776
     70 H30        -5.8800    0.6700   -4.1800 hc        1 MOL      0.120347
     71 H31        -5.8320   -1.1220   -4.3130 hc        1 MOL      0.120347
     72 N7         -6.5640   -2.0300   -0.7970 n         1 MOL     -0.106070
     73 C23        -6.6690   -3.3350   -0.1000 c3        1 MOL     -0.126653
     74 C24        -5.4080   -4.1820   -0.2450 c         1 MOL      0.590070
     75 O13        -5.4710   -5.3800   -0.0610 o         1 MOL     -0.558663
     76 H32        -6.1830   -1.2230   -0.3350 hn        1 MOL      0.163494
     77 H33        -7.4660   -3.9710   -0.4810 h1        1 MOL      0.084624
     78 H34        -6.8120   -3.2160    0.9720 h1        1 MOL      0.084624
     79 N8         -4.2550   -3.5320   -0.6010 n         1 MOL     -0.360113
     80 C25        -3.0350   -4.2870   -0.6720 c3        1 MOL      0.013139
     81 C26        -1.8340   -3.4630   -0.1960 c         1 MOL      0.507357
     82 O14        -1.8470   -2.1960   -0.1690 o         1 MOL     -0.609202
     83 C27        -2.7520   -4.6480   -2.1480 c3        1 MOL      0.408424
     84 C28        -3.5010   -5.9340   -2.5120 c3        1 MOL     -0.387161
     85 O15        -3.1230   -3.6250   -3.0390 oh        1 MOL     -0.619823
     86 H35        -4.2520   -2.5430   -0.8020 hn        1 MOL      0.215923
     87 H36        -3.0370   -5.1980   -0.0700 h1        1 MOL      0.059183
     88 H37        -1.6900   -4.8690   -2.0900 h1        1 MOL      0.000358
     89 H38        -3.9720   -3.2920   -2.7220 ho        1 MOL      0.418198
     90 H39        -3.0390   -6.8650   -2.1520 hc        1 MOL      0.094930
     91 H40        -4.5830   -5.8590   -2.3950 hc        1 MOL      0.094930
     92 H41        -3.3450   -6.0390   -3.5850 hc        1 MOL      0.094930
     93 N9         -0.7150   -4.1480    0.0290 n         1 MOL     -0.535360
     94 C29         0.5780   -3.5180    0.5670 c3        1 MOL      0.127907
     95 C30         1.7630   -3.7800   -0.3400 c         1 MOL      0.466100
     96 O16         1.8480   -4.8790   -0.9210 o         1 MOL     -0.541955
     97 C31         0.7200   -3.9450    2.0100 c3        1 MOL     -0.072488
     98 C32        -0.4480   -3.3200    2.8460 c3        1 MOL      0.157323
     99 C33         2.0360   -3.6230    2.7210 c3        1 MOL     -0.302931
    100 C34        -0.5140   -3.7210    4.3040 c3        1 MOL     -0.499546
    101 H42        -0.7650   -5.1530   -0.0580 hn        1 MOL      0.307886
    102 H43         0.4000   -2.4360    0.6290 h1        1 MOL      0.084276
    103 H44         0.5790   -5.0300    2.0710 hc        1 MOL      0.035852
    104 H45        -1.3950   -3.5150    2.3500 hc        1 MOL      0.031885
    105 H46        -0.2760   -2.2440    2.8060 hc        1 MOL      0.031885
    106 H47         2.0710   -2.5550    2.9220 hc        1 MOL      0.076782
    107 H48         2.1720   -4.1200    3.6820 hc        1 MOL      0.076782
    108 H49         2.8940   -3.7420    2.0640 hc        1 MOL      0.076782
    109 H50        -1.4440   -3.2910    4.6880 hc        1 MOL      0.135369
    110 H51        -0.4890   -4.8070    4.3910 hc        1 MOL      0.135369
    111 H52         0.3200   -3.3610    4.9120 hc        1 MOL      0.135369
    112 N10         2.5810   -2.7430   -0.5080 n         1 MOL     -0.070012
    113 C35         3.7810   -2.7270   -1.3260 c3        1 MOL     -0.056396
    114 C36         5.1240   -2.3700   -0.5650 c         1 MOL      0.266501
    115 O17         5.0740   -2.1350    0.6130 o         1 MOL     -0.236173
    116 C37         3.5490   -1.7030   -2.3850 c3        1 MOL      0.414810
    117 C38         2.5260   -2.1050   -3.4930 c3        1 MOL     -0.505012
    118 O18         2.9980   -0.5180   -1.8170 oh        1 MOL     -0.679165
    119 H53         2.2580   -1.9040   -0.0500 hn        1 MOL      0.038268
    120 H54         3.8700   -3.7240   -1.7620 h1        1 MOL      0.076755
    121 H55         4.4840   -1.5380   -2.9220 h1        1 MOL     -0.013091
    122 H56         2.1320   -0.7030   -1.4470 ho        1 MOL      0.410125
    123 H57         1.5180   -2.3220   -3.1550 hc        1 MOL      0.126375
    124 H58         2.4720   -1.2480   -4.1710 hc        1 MOL      0.126375
    125 H59         2.9620   -2.9850   -3.9660 hc        1 MOL      0.126375
    126 N11         6.3130   -2.1660   -1.1310 n         1 MOL     -0.310704
    127 C39         7.6360   -1.8200   -0.5040 c3        1 MOL     -0.120405
    128 C40         7.6140   -0.4280    0.1830 c         1 MOL      0.243579
    129 O19         8.1120   -0.3270    1.2830 o         1 MOL     -0.454507
    130 C41         8.7240   -1.8060   -1.5950 c3        1 MOL      0.319239
    131 C42         9.0390   -3.1550   -2.2170 c3        1 MOL     -0.402213
    132 O20         8.4470   -0.8270   -2.5600 oh        1 MOL     -0.632023
    133 H60         6.3220   -2.3390   -2.1330 hn        1 MOL      0.257851
    134 H61         7.7890   -2.5800    0.2630 h1        1 MOL      0.170700
    135 H62         9.6710   -1.5480   -1.1200 h1        1 MOL      0.040779
    136 H63         9.3130   -0.6420   -2.9290 ho        1 MOL      0.387727
    137 H64        10.0090   -3.0880   -2.6870 hc        1 MOL      0.117118
    138 H65         9.1960   -3.8480   -1.3850 hc        1 MOL      0.117118
    139 H66         8.2940   -3.5190   -2.9220 hc        1 MOL      0.117118
    140 N12         6.9260    0.5680   -0.4290 n         1 MOL     -0.017903
    141 C43         6.5950    1.8980    0.1400 c3        1 MOL     -0.183306
    142 C44         5.6060    1.7880    1.3090 c         1 MOL      0.511957
    143 O21         5.3020    2.7990    1.9630 o         1 MOL     -0.554174
    144 C45         6.0450    2.8410   -0.9160 c3        1 MOL     -0.165142
    145 C46         7.1590    3.3770   -1.8270 c3        1 MOL      0.151841
    146 C47         7.9590    2.4530   -2.6720 c3        1 MOL     -0.182793
    147 C48         8.6720    3.0720   -3.8780 c3        1 MOL     -0.006601
    148 N13         9.7530    4.0010   -3.4270 n4        1 MOL     -0.398087
    149 H67         6.7040    0.3270   -1.3830 hn        1 MOL      0.183183
    150 H68         7.5180    2.2970    0.5530 h1        1 MOL      0.132487
    151 H69         5.4340    3.6480   -0.5030 hc        1 MOL      0.078334
    152 H70         5.3620    2.3400   -1.6030 hc        1 MOL      0.078334
    153 H71         7.8530    3.9400   -1.1970 hc        1 MOL     -0.016209
    154 H72         6.7720    4.2000   -2.4150 hc        1 MOL     -0.016209
    155 H73         7.2610    1.7440   -3.1230 hc        1 MOL      0.089054
    156 H74         8.6160    1.9680   -1.9480 hc        1 MOL      0.089054
    157 H75         7.9960    3.4940   -4.6180 hx        1 MOL      0.115967
    158 H76         9.0880    2.2050   -4.3840 hx        1 MOL      0.115967
    159 H77        10.3320    4.3510   -4.1710 hn        1 MOL      0.342702
    160 H78         9.3130    4.7920   -2.9800 hn        1 MOL      0.342702
    161 H79        10.4490    3.5610   -2.8380 hn        1 MOL      0.342702
    162 N14         4.9360    0.6700    1.5720 n         1 MOL     -0.186256
    163 C49         3.9690    0.4940    2.6450 c3        1 MOL      0.007507
    164 C50         4.3910   -0.5790    3.6920 c         1 MOL      0.343562
    165 O22         4.0060   -0.5150    4.8510 o         1 MOL     -0.515994
    166 C51         2.5990    0.0690    2.1390 c3        1 MOL      0.124889
    167 C52         1.9280    1.2030    1.3850 c3        1 MOL     -0.143378
    168 C53         0.6930    0.6380    0.5480 c         1 MOL      0.791148
    169 O23        -0.3890    1.1640    0.6910 o         1 MOL     -0.787768
    170 O24         0.7700   -0.1360   -0.4240 o         1 MOL     -0.787768
    171 H80         4.9180   -0.1220    0.9420 hn        1 MOL      0.061408
    172 H81         3.7190    1.4440    3.1190 h1        1 MOL      0.095900
    173 H82         1.9170   -0.1920    2.9460 hc        1 MOL      0.076435
    174 H83         2.7910   -0.8220    1.5360 hc        1 MOL      0.076435
    175 H84         2.6990    1.4670    0.6650 hc        1 MOL      0.025555
    176 H85         1.6380    1.9790    2.0990 hc        1 MOL      0.025555
    177 N15         5.0430   -1.6800    3.3510 n         1 MOL     -0.128987
    178 C54         5.3390   -2.7800    4.2760 c3        1 MOL     -0.297296
    179 H86         6.4070   -2.9950    4.2540 h1        1 MOL      0.120191
    180 H87         5.0470   -2.4940    5.2860 h1        1 MOL      0.120191
    181 H88         4.7830   -3.6680    3.9750 h1        1 MOL      0.120191
    182 H89         5.3500   -1.7760    2.3970 hn        1 MOL      0.118290
    183 Ca1        -1.7160    0.2300   -1.4940 Ca        1 MOL      1.826790
    184 O25        -1.1680   -1.8420   -3.1440 oh        1 MOL     -0.868376
    185 H90        -1.9270   -2.4140   -3.1070 ho        1 MOL      0.408020
    186 H91        -0.8000   -1.9790   -4.0190 ho        1 MOL      0.408020
    187 O26        -0.5590    0.8650   -3.8760 oh        1 MOL     -0.868376
    188 H92        -0.2370    1.6380   -4.3350 ho        1 MOL      0.408020
    189 H93        -0.6000    0.1890   -4.5520 ho        1 MOL      0.408020
@<TRIPOS>BOND
     1    1    2 1   
     2    1    4 1   
     3    1    5 1   
     4    1    6 1   
     5    2    3 2   
     6    2    7 1   
     7    7    8 1   
     8    7   15 1   
     9    8    9 1   
    10    8   11 1   
    11    8   16 1   
    12    9   10 2   
    13    9   19 1   
    14   11   12 1   
    15   11   17 1   
    16   11   18 1   
    17   12   13 1   
    18   12   14 1   
    19   19   20 1   
    20   19   28 1   
    21   20   21 1   
    22   20   23 1   
    23   20   29 1   
    24   21   22 2   
    25   21   41 1   
    26   23   24 1   
    27   23   30 1   
    28   23   31 1   
    29   24   25 1   
    30   24   32 1   
    31   24   33 1   
    32   25   26 1   
    33   25   34 1   
    34   25   35 1   
    35   26   27 1   
    36   26   36 1   
    37   26   37 1   
    38   27   38 1   
    39   27   39 1   
    40   27   40 1   
    41   41   42 1   
    42   41   49 1   
    43   42   43 1   
    44   42   45 1   
    45   42   50 1   
    46   43   44 2   
    47   43   53 1   
    48   45   46 1   
    49   45   51 1   
    50   45   52 1   
    51   46   47 1   
    52   46   48 1   
    53   53   54 1   
    54   53   57 1   
    55   54   55 1   
    56   54   58 1   
    57   54   59 1   
    58   55   56 2   
    59   55   60 1   
    60   60   61 1   
    61   60   68 1   
    62   61   62 1   
    63   61   64 1   
    64   61   69 1   
    65   62   63 2   
    66   62   72 1   
    67   64   65 1   
    68   64   70 1   
    69   64   71 1   
    70   65   66 1   
    71   65   67 1   
    72   72   73 1   
    73   72   76 1   
    74   73   74 1   
    75   73   77 1   
    76   73   78 1   
    77   74   75 2   
    78   74   79 1   
    79   79   80 1   
    80   79   86 1   
    81   80   81 1   
    82   80   83 1   
    83   80   87 1   
    84   81   82 2   
    85   81   93 1   
    86   83   84 1   
    87   83   85 1   
    88   83   88 1   
    89   84   90 1   
    90   84   91 1   
    91   84   92 1   
    92   85   89 1   
    93   93   94 1   
    94   93  101 1   
    95   94   95 1   
    96   94   97 1   
    97   94  102 1   
    98   95   96 2   
    99   95  112 1   
   100   97   98 1   
   101   97   99 1   
   102   97  103 1   
   103   98  100 1   
   104   98  104 1   
   105   98  105 1   
   106   99  106 1   
   107   99  107 1   
   108   99  108 1   
   109  100  109 1   
   110  100  110 1   
   111  100  111 1   
   112  112  113 1   
   113  112  119 1   
   114  113  114 1   
   115  113  116 1   
   116  113  120 1   
   117  114  115 2   
   118  114  126 1   
   119  116  117 1   
   120  116  118 1   
   121  116  121 1   
   122  117  123 1   
   123  117  124 1   
   124  117  125 1   
   125  118  122 1   
   126  126  127 1   
   127  126  133 1   
   128  127  128 1   
   129  127  130 1   
   130  127  134 1   
   131  128  129 2   
   132  128  140 1   
   133  130  131 1   
   134  130  132 1   
   135  130  135 1   
   136  131  137 1   
   137  131  138 1   
   138  131  139 1   
   139  132  136 1   
   140  140  141 1   
   141  140  149 1   
   142  141  142 1   
   143  141  144 1   
   144  141  150 1   
   145  142  143 2   
   146  142  162 1   
   147  144  145 1   
   148  144  151 1   
   149  144  152 1   
   150  145  146 1   
   151  145  153 1   
   152  145  154 1   
   153  146  147 1   
   154  146  155 1   
   155  146  156 1   
   156  147  148 1   
   157  147  157 1   
   158  147  158 1   
   159  148  159 1   
   160  148  160 1   
   161  148  161 1   
   162  162  163 1   
   163  162  171 1   
   164  163  164 1   
   165  163  166 1   
   166  163  172 1   
   167  164  165 2   
   168  164  177 1   
   169  166  167 1   
   170  166  173 1   
   171  166  174 1   
   172  167  168 1   
   173  167  175 1   
   174  167  176 1   
   175  168  169 1   
   176  168  170 1   
   177  177  178 1   
   178  177  182 1   
   179  178  179 1   
   180  178  180 1   
   181  178  181 1   
   182  184  185 1   
   183  184  186 1   
   184  187  188 1   
   185  187  189 1   
@<TRIPOS>SUBSTRUCTURE
     1 MOL         1 TEMP              0 ****  ****    0 ROOT
