@<TRIPOS>MOLECULE
MOL
  186   183     1     0     0
SMALL
resp


@<TRIPOS>ATOM
      1 C1          1.2330   -1.4590    6.2720 c3        1 MOL     -0.256962
      2 C2          1.3990   -1.5530    4.7810 c         1 MOL      0.843074
      3 O1          0.5440   -2.1300    4.1350 o         1 MOL     -0.640997
      4 H1          1.0460   -0.4220    6.5510 hc        1 MOL      0.053174
      5 H2          0.3920   -2.0760    6.5840 hc        1 MOL      0.053174
      6 H3          2.1420   -1.8080    6.7620 hc        1 MOL      0.053174
      7 N1          2.5120   -1.1240    4.1620 n         1 MOL     -0.692753
      8 C3          2.7990   -1.3610    2.7440 c3        1 MOL      0.395769
      9 C4          3.1610   -2.8740    2.6160 c         1 MOL      0.506890
     10 O2          3.8340   -3.3920    3.4280 o         1 MOL     -0.561203
     11 C5          4.1030   -0.6060    2.4470 c3        1 MOL     -0.258309
     12 C6          4.5700   -0.7590    1.0270 c         1 MOL      0.679447
     13 O3          3.7440   -0.9540    0.1000 o         1 MOL     -0.627785
     14 O4          5.7550   -0.5690    0.8160 o         1 MOL     -0.627785
     15 H4          3.1890   -0.7020    4.7830 hn        1 MOL      0.298658
     16 H5          1.9370   -1.1680    2.1030 h1        1 MOL     -0.079216
     17 H6          4.8950   -0.9750    3.0960 hc        1 MOL      0.041101
     18 H7          3.9420    0.4620    2.6440 hc        1 MOL      0.041101
     19 N2          2.6730   -3.5780    1.5260 n         1 MOL     -0.146919
     20 C7          2.9270   -4.9460    1.1540 c3        1 MOL     -0.332468
     21 C8          3.5280   -5.1740   -0.2770 c         1 MOL      0.615386
     22 O5          3.5970   -6.3030   -0.7650 o         1 MOL     -0.581770
     23 C9          1.7290   -5.8550    1.4780 c3        1 MOL      0.450239
     24 C10         0.4660   -5.5430    0.6720 c3        1 MOL     -0.015871
     25 C11         1.4680   -5.7780    3.0060 c3        1 MOL     -0.304900
     26 C12        -0.4520   -6.7670    0.5460 c3        1 MOL     -0.354221
     27 H8          2.1210   -3.0010    0.9030 hn        1 MOL      0.084186
     28 H9          3.7670   -5.2280    1.7860 h1        1 MOL      0.094573
     29 H10         1.9800   -6.8730    1.1810 hc        1 MOL     -0.091867
     30 H11         0.8150   -5.2940   -0.3290 hc        1 MOL      0.081860
     31 H12        -0.0610   -4.6640    1.0580 hc        1 MOL      0.081860
     32 H13         0.7570   -4.9910    3.2520 hc        1 MOL      0.050770
     33 H14         1.0450   -6.7420    3.2920 hc        1 MOL      0.050770
     34 H15         2.3510   -5.6840    3.6420 hc        1 MOL      0.050770
     35 H16        -0.7160   -7.1390    1.5350 hc        1 MOL      0.074745
     36 H17        -1.2910   -6.5530   -0.1220 hc        1 MOL      0.074745
     37 H18         0.0780   -7.5300   -0.0330 hc        1 MOL      0.074745
     38 N3          4.1180   -4.1250   -0.8420 n         1 MOL     -0.402798
     39 C13         4.8450   -4.1050   -2.1540 c3        1 MOL     -0.003572
     40 C14         6.2780   -3.7130   -1.9030 c         1 MOL      0.449172
     41 O6          7.1340   -4.2000   -2.6450 o         1 MOL     -0.550633
     42 C15         4.2530   -3.0810   -3.2080 c3        1 MOL      0.003427
     43 C16         2.6850   -3.0530   -3.1390 c         1 MOL      0.702815
     44 O7          2.1570   -2.0010   -2.6890 o         1 MOL     -0.678414
     45 O8          2.0520   -3.8690   -3.8240 o         1 MOL     -0.678414
     46 H19         3.9690   -3.2300   -0.3990 hn        1 MOL      0.238851
     47 H20         4.7810   -5.0310   -2.7120 h1        1 MOL      0.091578
     48 H21         4.4660   -3.4500   -4.2160 hc        1 MOL     -0.014264
     49 H22         4.6550   -2.1030   -2.9400 hc        1 MOL     -0.014264
     50 N4          6.5710   -2.8180   -0.9440 n         1 MOL     -0.279086
     51 C17         7.8230   -2.1200   -0.7090 c3        1 MOL     -0.047846
     52 C18         8.1080   -0.8450   -1.5070 c         1 MOL      0.435194
     53 O9          9.2910   -0.5680   -1.8470 o         1 MOL     -0.579112
     54 H23         5.8020   -2.4770   -0.3950 hn        1 MOL      0.157146
     55 H24         8.6630   -2.8060   -0.8360 h1        1 MOL      0.071642
     56 H25         7.8310   -1.8700    0.3470 h1        1 MOL      0.071642
     57 N5          7.0430   -0.1260   -1.8980 n         1 MOL     -0.154742
     58 C19         7.0150    1.2380   -2.4560 c3        1 MOL     -0.136757
     59 C20         7.0360    2.2600   -1.3220 c         1 MOL      0.392566
     60 O10         7.2630    3.4880   -1.5400 o         1 MOL     -0.546759
     61 C21         5.7790    1.5630   -3.3030 c3        1 MOL     -0.201121
     62 C22         4.4980    1.0560   -2.6400 c         1 MOL      0.820728
     63 O11         4.0730    1.5510   -1.5710 o         1 MOL     -0.779594
     64 O12         3.6840    0.3290   -3.2600 o         1 MOL     -0.779594
     65 H26         6.1690   -0.4280   -1.4980 hn        1 MOL      0.185034
     66 H27         7.9010    1.3590   -3.0850 h1        1 MOL      0.138075
     67 H28         5.8090    1.1320   -4.3010 hc        1 MOL      0.073904
     68 H29         5.7110    2.6460   -3.4550 hc        1 MOL      0.073904
     69 N6          7.0520    1.8390   -0.0520 n         1 MOL     -0.123256
     70 C23         7.3260    2.7670    1.0070 c3        1 MOL     -0.192246
     71 C24         6.0900    3.6350    1.3020 c         1 MOL      0.673826
     72 O13         6.2370    4.6460    1.9450 o         1 MOL     -0.617966
     73 H30         6.8860    0.8860    0.2500 hn        1 MOL      0.209234
     74 H31         8.1400    3.4230    0.7100 h1        1 MOL      0.082228
     75 H32         7.5790    2.1790    1.8860 h1        1 MOL      0.082228
     76 N7          4.9040    3.2690    0.7840 n         1 MOL     -0.451537
     77 C25         3.6270    3.9520    1.0370 c3        1 MOL     -0.035177
     78 C26         2.3760    3.0350    1.2040 c         1 MOL      0.721475
     79 O14         2.3660    1.8920    0.9030 o         1 MOL     -0.594874
     80 C27         3.3730    4.8890   -0.1530 c3        1 MOL     -0.171414
     81 C28         4.1490    6.2070   -0.0300 c3        1 MOL     -0.096142
     82 C29         3.8330    7.1280   -1.2300 c         1 MOL      0.549614
     83 N8          4.6640    8.1760   -1.2550 n         1 MOL     -0.743626
     84 O15         2.7700    7.0290   -1.9320 o         1 MOL     -0.537077
     85 H33         4.8260    2.4470    0.2010 hn        1 MOL      0.287775
     86 H34         3.6430    4.5490    1.9510 h1        1 MOL      0.062700
     87 H35         2.3110    5.0840   -0.2870 hc        1 MOL      0.090043
     88 H36         3.6410    4.3670   -1.0740 hc        1 MOL      0.090043
     89 H37         5.2090    5.9610   -0.0540 hc        1 MOL      0.072019
     90 H38         3.9140    6.7220    0.9050 hc        1 MOL      0.072019
     91 H39         5.4460    8.2000   -0.6210 hn        1 MOL      0.346494
     92 H40         4.4580    8.8710   -1.9610 hn        1 MOL      0.346494
     93 N9          1.2720    3.6010    1.7050 n         1 MOL     -0.619625
     94 C30        -0.0070    2.8910    1.8650 c3        1 MOL      0.115135
     95 C31        -1.1350    3.3840    0.9150 c         1 MOL      0.470431
     96 O16        -1.4830    4.5640    0.8980 o         1 MOL     -0.596701
     97 C32        -0.4520    3.0050    3.3430 c3        1 MOL      0.307879
     98 C33        -1.6300    2.1450    3.7680 c3        1 MOL     -0.297199
     99 C34         0.6970    2.6240    4.2660 c3        1 MOL     -0.297199
    100 H41         1.4220    4.5240    2.0900 hn        1 MOL      0.288319
    101 H42         0.2410    1.8830    1.5400 h1        1 MOL      0.113324
    102 H43        -0.8060    4.0250    3.4810 hc        1 MOL     -0.042963
    103 H44        -1.8930    2.2380    4.8200 hc        1 MOL      0.054998
    104 H45        -2.4620    2.3260    3.0870 hc        1 MOL      0.054998
    105 H46        -1.3720    1.1530    3.4160 hc        1 MOL      0.054998
    106 H47         0.8820    1.5640    4.1550 hc        1 MOL      0.054998
    107 H48         1.6460    3.1380    4.0950 hc        1 MOL      0.054998
    108 H49         0.4870    2.8100    5.3140 hc        1 MOL      0.054998
    109 N10        -1.7970    2.4550    0.2680 n         1 MOL     -0.126993
    110 C35        -2.9940    2.6090   -0.6260 c3        1 MOL      0.112923
    111 C36        -4.3430    2.2290    0.1140 c         1 MOL      0.460572
    112 O17        -4.3320    1.6080    1.2030 o         1 MOL     -0.431862
    113 C37        -2.7050    1.8870   -1.9760 c3        1 MOL     -0.471983
    114 C38        -3.5350    0.6550   -2.2660 c         1 MOL      0.617167
    115 N11        -2.8150   -0.4330   -2.3220 n         1 MOL     -0.697496
    116 O18        -4.7380    0.6550   -2.3470 o         1 MOL     -0.541626
    117 H50        -1.5200    1.4860    0.3180 hn        1 MOL     -0.037414
    118 H51        -3.0720    3.6720   -0.8800 h1        1 MOL      0.042348
    119 H52        -1.6380    1.6580   -1.9950 hc        1 MOL      0.172098
    120 H53        -2.8520    2.5470   -2.8310 hc        1 MOL      0.172098
    121 H54        -1.8340   -0.3500   -2.0660 hn        1 MOL      0.392886
    122 H55        -3.3390   -1.2930   -2.3720 hn        1 MOL      0.392886
    123 N12        -5.4430    2.7450   -0.4440 n         1 MOL     -0.572602
    124 C39        -6.7140    2.5740    0.3200 c3        1 MOL      0.145023
    125 C40        -7.0800    1.0600    0.5910 c         1 MOL      0.441614
    126 O19        -7.6140    0.7810    1.6780 o         1 MOL     -0.540460
    127 C41        -7.8960    3.3160   -0.2730 c3        1 MOL     -0.172310
    128 C42        -9.0230    2.4440   -0.7700 ca        1 MOL      0.040123
    129 C43       -10.0860    2.0050    0.0650 ca        1 MOL     -0.231087
    130 C44        -8.8560    1.9440   -2.0880 ca        1 MOL     -0.231087
    131 C45       -11.0000    1.0750   -0.4570 ca        1 MOL     -0.226367
    132 C46        -9.8250    1.0880   -2.6300 ca        1 MOL     -0.226367
    133 C47       -10.9250    0.6870   -1.8630 ca        1 MOL      0.302262
    134 O20       -11.8910   -0.1430   -2.3850 oh        1 MOL     -0.521602
    135 H56        -5.2710    3.4570   -1.1360 hn        1 MOL      0.329569
    136 H57        -6.5140    2.9380    1.3310 h1        1 MOL      0.064701
    137 H58        -7.6090    3.9550   -1.1020 hc        1 MOL      0.066232
    138 H59        -8.2960    3.9770    0.4890 hc        1 MOL      0.066232
    139 H60       -10.1010    2.2930    1.1050 ha        1 MOL      0.161418
    140 H61        -7.9940    2.2210   -2.6790 ha        1 MOL      0.161418
    141 H62       -11.7130    0.6100    0.2080 ha        1 MOL      0.151564
    142 H63        -9.8360    0.8270   -3.6790 ha        1 MOL      0.151564
    143 H64       -11.9150   -0.1910   -3.3430 ho        1 MOL      0.383926
    144 N13        -6.6430    0.1300   -0.2640 n         1 MOL      0.045157
    145 C48        -6.7710   -1.3340   -0.1110 c3        1 MOL     -0.043511
    146 C49        -5.7480   -1.8380    0.8680 c         1 MOL      0.181830
    147 O21        -5.8430   -2.9110    1.4920 o         1 MOL     -0.500898
    148 C50        -6.5500   -2.1130   -1.4420 c3        1 MOL      0.074140
    149 C51        -7.7590   -1.7870   -2.4000 c3        1 MOL     -0.293035
    150 C52        -7.7770   -2.7530   -3.6430 c         1 MOL      0.704385
    151 O22        -8.8480   -2.9850   -4.2320 o         1 MOL     -0.732485
    152 O23        -6.7120   -3.1440   -4.1070 o         1 MOL     -0.732485
    153 H65        -6.0760    0.3420   -1.0800 hn        1 MOL      0.083323
    154 H66        -7.6850   -1.6250    0.4160 h1        1 MOL      0.089352
    155 H67        -6.6150   -3.1910   -1.3050 hc        1 MOL      0.023093
    156 H68        -5.5870   -1.8040   -1.8410 hc        1 MOL      0.023093
    157 H69        -7.6980   -0.7520   -2.7130 hc        1 MOL      0.066216
    158 H70        -8.7060   -1.9170   -1.8740 hc        1 MOL      0.066216
    159 N14        -4.5730   -1.1490    1.0230 n         1 MOL     -0.087799
    160 C53        -3.6530   -1.5710    2.1300 c3        1 MOL     -0.201909
    161 C54        -4.0690   -1.0780    3.5510 c         1 MOL      0.390561
    162 O24        -3.6410   -1.5500    4.5810 o         1 MOL     -0.540259
    163 C55        -2.2970   -1.0980    1.6910 c3        1 MOL      0.132320
    164 C56        -1.7620   -1.9540    0.5090 c3        1 MOL     -0.116906
    165 C57        -0.5590   -1.2420   -0.0910 c         1 MOL      0.865664
    166 O25         0.3730   -1.9480   -0.5270 o         1 MOL     -0.770286
    167 O26        -0.4380   -0.0110   -0.2110 o         1 MOL     -0.770286
    168 H71        -4.3930   -0.2830    0.5480 hn        1 MOL      0.263681
    169 H72        -3.6240   -2.6510    2.2550 h1        1 MOL      0.172365
    170 H73        -1.4630   -1.3010    2.3640 hc        1 MOL      0.024498
    171 H74        -2.2870   -0.0060    1.6200 hc        1 MOL      0.024498
    172 H75        -2.4220   -2.0590   -0.3510 hc        1 MOL     -0.013266
    173 H76        -1.5860   -2.9560    0.9030 hc        1 MOL     -0.013266
    174 N15        -5.1510   -0.2730    3.5900 n         1 MOL      0.038199
    175 C58        -5.8740    0.2220    4.7700 c3        1 MOL     -0.253879
    176 H77        -5.9820    1.3050    4.7000 h1        1 MOL      0.085154
    177 H78        -6.8610   -0.2400    4.8130 h1        1 MOL      0.085154
    178 H79        -5.3160   -0.0290    5.6710 h1        1 MOL      0.085154
    179 H80        -5.4320    0.1350    2.7120 hn        1 MOL      0.020864
    180 Ca1         1.9570    0.1190   -1.3400 Ca        1 MOL      1.708712
    181 O27         1.6030    2.5280   -2.2990 oh        1 MOL     -0.874077
    182 H81         2.5290    2.7890   -2.2500 ho        1 MOL      0.408817
    183 H82         1.1820    3.2310   -2.7840 ho        1 MOL      0.408817
    184 O28         0.0930   -0.3340   -3.2130 oh        1 MOL     -0.874077
    185 H83         0.1620    0.2330   -3.9880 ho        1 MOL      0.408817
    186 H84         0.7460   -1.0150   -3.3590 ho        1 MOL      0.408817
@<TRIPOS>BOND
     1    1    2 1   
     2    1    4 1   
     3    1    5 1   
     4    1    6 1   
     5    2    3 2   
     6    2    7 1   
     7    7    8 1   
     8    7   15 1   
     9    8    9 1   
    10    8   11 1   
    11    8   16 1   
    12    9   10 2   
    13    9   19 1   
    14   11   12 1   
    15   11   17 1   
    16   11   18 1   
    17   12   13 1   
    18   12   14 1   
    19   19   20 1   
    20   19   27 1   
    21   20   21 1   
    22   20   23 1   
    23   20   28 1   
    24   21   22 2   
    25   21   38 1   
    26   23   24 1   
    27   23   25 1   
    28   23   29 1   
    29   24   26 1   
    30   24   30 1   
    31   24   31 1   
    32   25   32 1   
    33   25   33 1   
    34   25   34 1   
    35   26   35 1   
    36   26   36 1   
    37   26   37 1   
    38   38   39 1   
    39   38   46 1   
    40   39   40 1   
    41   39   42 1   
    42   39   47 1   
    43   40   41 2   
    44   40   50 1   
    45   42   43 1   
    46   42   48 1   
    47   42   49 1   
    48   43   44 1   
    49   43   45 1   
    50   50   51 1   
    51   50   54 1   
    52   51   52 1   
    53   51   55 1   
    54   51   56 1   
    55   52   53 2   
    56   52   57 1   
    57   57   58 1   
    58   57   65 1   
    59   58   59 1   
    60   58   61 1   
    61   58   66 1   
    62   59   60 2   
    63   59   69 1   
    64   61   62 1   
    65   61   67 1   
    66   61   68 1   
    67   62   63 1   
    68   62   64 1   
    69   69   70 1   
    70   69   73 1   
    71   70   71 1   
    72   70   74 1   
    73   70   75 1   
    74   71   72 2   
    75   71   76 1   
    76   76   77 1   
    77   76   85 1   
    78   77   78 1   
    79   77   80 1   
    80   77   86 1   
    81   78   79 2   
    82   78   93 1   
    83   80   81 1   
    84   80   87 1   
    85   80   88 1   
    86   81   82 1   
    87   81   89 1   
    88   81   90 1   
    89   82   83 1   
    90   82   84 2   
    91   83   91 1   
    92   83   92 1   
    93   93   94 1   
    94   93  100 1   
    95   94   95 1   
    96   94   97 1   
    97   94  101 1   
    98   95   96 2   
    99   95  109 1   
   100   97   98 1   
   101   97   99 1   
   102   97  102 1   
   103   98  103 1   
   104   98  104 1   
   105   98  105 1   
   106   99  106 1   
   107   99  107 1   
   108   99  108 1   
   109  109  110 1   
   110  109  117 1   
   111  110  111 1   
   112  110  113 1   
   113  110  118 1   
   114  111  112 2   
   115  111  123 1   
   116  113  114 1   
   117  113  119 1   
   118  113  120 1   
   119  114  115 1   
   120  114  116 2   
   121  115  121 1   
   122  115  122 1   
   123  123  124 1   
   124  123  135 1   
   125  124  125 1   
   126  124  127 1   
   127  124  136 1   
   128  125  126 2   
   129  125  144 1   
   130  127  128 1   
   131  127  137 1   
   132  127  138 1   
   133  128  129 ar  
   134  128  130 ar  
   135  129  131 ar  
   136  129  139 1   
   137  130  132 ar  
   138  130  140 1   
   139  131  133 ar  
   140  131  141 1   
   141  132  133 ar  
   142  132  142 1   
   143  133  134 1   
   144  134  143 1   
   145  144  145 1   
   146  144  153 1   
   147  145  146 1   
   148  145  148 1   
   149  145  154 1   
   150  146  147 2   
   151  146  159 1   
   152  148  149 1   
   153  148  155 1   
   154  148  156 1   
   155  149  150 1   
   156  149  157 1   
   157  149  158 1   
   158  150  151 1   
   159  150  152 1   
   160  159  160 1   
   161  159  168 1   
   162  160  161 1   
   163  160  163 1   
   164  160  169 1   
   165  161  162 2   
   166  161  174 1   
   167  163  164 1   
   168  163  170 1   
   169  163  171 1   
   170  164  165 1   
   171  164  172 1   
   172  164  173 1   
   173  165  166 1   
   174  165  167 1   
   175  174  175 1   
   176  174  179 1   
   177  175  176 1   
   178  175  177 1   
   179  175  178 1   
   180  181  182 1   
   181  181  183 1   
   182  184  185 1   
   183  184  186 1   
@<TRIPOS>SUBSTRUCTURE
     1 MOL         1 TEMP              0 ****  ****    0 ROOT
