@<TRIPOS>MOLECULE
MOL
  178   175     1     0     0
SMALL
resp


@<TRIPOS>ATOM
      1 C1          1.0090   -2.2890    6.0830 c3        1 MOL     -0.294423
      2 C2          0.8390   -1.8400    4.5900 c         1 MOL      0.760314
      3 O1         -0.2070   -2.1360    3.9630 o         1 MOL     -0.605807
      4 H1          0.1470   -2.8830    6.3830 hc        1 MOL      0.073227
      5 H2          1.9140   -2.8880    6.1830 hc        1 MOL      0.073227
      6 H3          1.0840   -1.4090    6.7220 hc        1 MOL      0.073227
      7 N1          1.9200   -1.3600    3.9800 n         1 MOL     -0.668001
      8 C3          2.0330   -1.3140    2.5420 c3        1 MOL      0.234509
      9 C4          2.3320   -2.7010    2.0730 c         1 MOL      0.520747
     10 O2          3.3130   -3.2740    2.5430 o         1 MOL     -0.577592
     11 C5          3.1990   -0.3790    2.1420 c3        1 MOL     -0.354584
     12 C6          3.5220   -0.2010    0.6790 c         1 MOL      0.312849
     13 O3          2.7650   -0.6920   -0.2080 o         1 MOL     -0.418144
     14 O4          4.3870    0.6440    0.4010 o         1 MOL     -0.418144
     15 H4          2.6870   -1.0060    4.5350 hn        1 MOL      0.320876
     16 H5          1.0650   -1.0000    2.1300 h1        1 MOL     -0.001240
     17 H6          4.1370   -0.6930    2.6100 hc        1 MOL      0.132974
     18 H7          2.8660    0.6100    2.4800 hc        1 MOL      0.132974
     19 N2          1.5520   -3.2310    1.2130 n         1 MOL     -0.182086
     20 C7          1.7550   -4.5960    0.7310 c3        1 MOL      0.058532
     21 C8          2.8480   -4.6600   -0.3370 c         1 MOL      0.450001
     22 O5          3.5010   -5.7050   -0.5600 o         1 MOL     -0.568423
     23 C9          0.4630   -5.2590    0.2060 c3        1 MOL     -0.228797
     24 H8          0.7460   -2.7290    0.8550 hn        1 MOL      0.178874
     25 H9          2.2600   -5.1630    1.5140 h1        1 MOL      0.057933
     26 H10        -0.3210   -5.1830    0.9610 hc        1 MOL      0.076091
     27 H11         0.0670   -4.7590   -0.6770 hc        1 MOL      0.076091
     28 H12         0.5610   -6.3050   -0.0650 hc        1 MOL      0.076091
     29 N3          3.2580   -3.5340   -1.0300 n         1 MOL     -0.032611
     30 C10         4.5130   -3.4470   -1.7380 c3        1 MOL     -0.044628
     31 C11         5.6710   -3.2570   -0.8430 c         1 MOL      0.346417
     32 O6          6.7870   -3.5880   -1.3250 o         1 MOL     -0.544480
     33 C12         4.5300   -2.3760   -2.8840 c3        1 MOL     -0.099175
     34 C13         3.1530   -2.5380   -3.5460 c         1 MOL      0.603166
     35 O7          2.3210   -1.5980   -3.5800 o         1 MOL     -0.655208
     36 O8          2.9570   -3.5670   -4.1800 o         1 MOL     -0.655208
     37 H13         2.7450   -2.6840   -0.8560 hn        1 MOL      0.016117
     38 H14         4.6560   -4.3560   -2.3090 h1        1 MOL      0.102407
     39 H15         5.3500   -2.5890   -3.5800 hc        1 MOL      0.020164
     40 H16         4.5440   -1.3810   -2.4590 hc        1 MOL      0.020164
     41 N4          5.4890   -2.8160    0.4150 n         1 MOL      0.242878
     42 C14         6.4840   -2.8070    1.3790 c3        1 MOL     -0.171316
     43 C15         7.4980   -1.7140    1.1240 c         1 MOL      0.509150
     44 O9          8.7520   -1.8650    1.2510 o         1 MOL     -0.572956
     45 H17         4.5400   -2.9630    0.7320 hn        1 MOL     -0.050269
     46 H18         6.9600   -3.7870    1.3390 h1        1 MOL      0.069767
     47 H19         5.9720   -2.6880    2.3360 h1        1 MOL      0.069767
     48 N5          7.0530   -0.5550    0.6510 n         1 MOL     -0.516514
     49 C16         7.9140    0.5480    0.0270 c3        1 MOL      0.302267
     50 C17         7.6850    1.9860    0.6640 c         1 MOL      0.340408
     51 O10         8.5850    2.8150    0.6850 o         1 MOL     -0.515757
     52 C18         7.6640    0.5420   -1.5450 c3        1 MOL     -0.002762
     53 C19         8.8100    1.1420   -2.3240 c         1 MOL      0.592822
     54 N6          9.9160    0.4130   -2.5530 n         1 MOL     -0.815278
     55 O11         8.6450    2.2440   -2.7750 o         1 MOL     -0.543752
     56 H20         6.0540   -0.4890    0.5410 hn        1 MOL      0.207708
     57 H21         8.9710    0.3630    0.2330 h1        1 MOL      0.034762
     58 H22         6.7170    1.0480   -1.7440 hc        1 MOL     -0.021107
     59 H23         7.6270   -0.4940   -1.8830 hc        1 MOL     -0.021107
     60 H24         9.8890   -0.5960   -2.5280 hn        1 MOL      0.365421
     61 H25        10.6950    0.8450   -3.0330 hn        1 MOL      0.365421
     62 N7          6.5270    2.1630    1.3220 n         1 MOL     -0.171482
     63 C20         6.1750    3.2500    2.2100 c3        1 MOL     -0.070531
     64 C21         4.7600    3.8360    1.9430 c         1 MOL      0.393123
     65 O12         4.4110    4.8240    2.6300 o         1 MOL     -0.567573
     66 H26         5.8230    1.4530    1.1880 hn        1 MOL      0.099814
     67 H27         6.8720    4.0800    2.0760 h1        1 MOL      0.092178
     68 H28         6.2710    2.9030    3.2350 h1        1 MOL      0.092178
     69 N8          3.9460    3.3590    1.0050 n         1 MOL     -0.160215
     70 C22         2.7290    4.0970    0.5930 c3        1 MOL      0.137292
     71 C23         1.4840    3.1670    0.4980 c         1 MOL      0.178160
     72 O13         1.5620    2.1340   -0.1670 o         1 MOL     -0.461444
     73 C24         2.9150    4.8990   -0.6860 c3        1 MOL      0.524697
     74 C25         1.9130    6.0470   -0.7480 c3        1 MOL     -0.371298
     75 O14         4.2340    5.3730   -0.7600 oh        1 MOL     -0.631034
     76 H29         4.3620    2.6660    0.3950 hn        1 MOL      0.095107
     77 H30         2.5380    4.8290    1.3730 h1        1 MOL      0.036380
     78 H31         2.7060    4.2600   -1.5480 h1        1 MOL     -0.073737
     79 H32         4.7610    4.6900   -1.1770 ho        1 MOL      0.365518
     80 H33         1.8170    6.4580    0.2510 hc        1 MOL      0.091970
     81 H34         2.1710    6.7160   -1.5670 hc        1 MOL      0.091970
     82 H35         0.9040    5.7240   -1.0140 hc        1 MOL      0.091970
     83 N9          0.3410    3.5510    1.0940 n         1 MOL     -0.276946
     84 C26        -0.7860    2.7060    1.3000 c3        1 MOL      0.214736
     85 C27        -1.8820    3.0330    0.2800 c         1 MOL      0.341516
     86 O15        -2.2860    4.2060    0.2480 o         1 MOL     -0.540977
     87 C28        -1.3660    2.7920    2.7700 c3        1 MOL     -0.040587
     88 C29        -0.3820    2.4280    3.8110 c3        1 MOL      0.234140
     89 C30        -2.6770    2.0780    2.9130 c3        1 MOL      0.022805
     90 C31        -0.8480    2.6030    5.2970 c3        1 MOL     -0.317118
     91 H36         0.1750    4.5230    1.3310 hn        1 MOL      0.225830
     92 H37        -0.4390    1.6740    1.2250 h1        1 MOL      0.108323
     93 H38        -1.4830    3.8650    2.9320 hc        1 MOL     -0.008470
     94 H39         0.5240    3.0200    3.6880 hc        1 MOL     -0.053903
     95 H40         0.0410    1.4440    3.6090 hc        1 MOL     -0.053903
     96 H41        -3.3820    2.2960    2.1100 hc        1 MOL     -0.018172
     97 H42        -2.6190    0.9930    2.8640 hc        1 MOL     -0.018172
     98 H43        -3.1730    2.3600    3.8400 hc        1 MOL     -0.018172
     99 H44        -1.2890    3.5920    5.4720 hc        1 MOL      0.067559
    100 H45        -1.5410    1.8040    5.5510 hc        1 MOL      0.067559
    101 H46        -0.0610    2.2880    5.9770 hc        1 MOL      0.067559
    102 N10        -2.3330    2.0410   -0.5520 n         1 MOL     -0.170087
    103 C32        -3.5890    2.0360   -1.3140 c3        1 MOL      0.074983
    104 C33        -4.8820    1.7360   -0.5590 c         1 MOL      0.546822
    105 O16        -4.9060    1.2230    0.5040 o         1 MOL     -0.362119
    106 C34        -3.5440    0.9920   -2.4810 c3        1 MOL     -0.544350
    107 C35        -2.1790    1.0840   -3.2200 c         1 MOL      0.818852
    108 O17        -1.2880    0.1940   -3.1280 o         1 MOL     -0.698296
    109 O18        -1.9950    2.0540   -4.0170 o         1 MOL     -0.698296
    110 H47        -1.8150    1.1760   -0.4610 hn        1 MOL      0.051612
    111 H48        -3.7270    3.0110   -1.7850 h1        1 MOL      0.057383
    112 H49        -4.3720    1.1670   -3.1680 hc        1 MOL      0.167683
    113 H50        -3.4970    0.0180   -1.9820 hc        1 MOL      0.167683
    114 N11        -6.0730    1.9190   -1.1680 n         1 MOL     -0.696163
    115 C36        -7.3050    1.5050   -0.5630 c3        1 MOL      0.352783
    116 C37        -7.3510   -0.0300   -0.3300 c         1 MOL      0.405327
    117 O19        -7.5860   -0.4340    0.7700 o         1 MOL     -0.523789
    118 C38        -8.4960    1.9770   -1.4480 c3        1 MOL     -0.095805
    119 C39        -9.9010    1.5940   -1.0160 ca        1 MOL      0.115118
    120 C40       -10.3630    2.0600    0.2230 ca        1 MOL     -0.208720
    121 C41       -10.6740    0.7050   -1.7310 ca        1 MOL     -0.208720
    122 C42       -11.6630    1.6470    0.7080 ca        1 MOL     -0.086823
    123 C43       -11.8350    0.1260   -1.2040 ca        1 MOL     -0.086823
    124 C44       -12.3450    0.6190    0.0020 ca        1 MOL     -0.112482
    125 H51        -6.1670    2.4210   -2.0360 hn        1 MOL      0.330373
    126 H52        -7.4080    1.9350    0.4260 h1        1 MOL      0.025730
    127 H53        -8.4260    1.6210   -2.4860 hc        1 MOL      0.024470
    128 H54        -8.5450    3.0640   -1.4020 hc        1 MOL      0.024470
    129 H55        -9.7800    2.8070    0.7250 ha        1 MOL      0.126645
    130 H56       -10.3480    0.3050   -2.6820 ha        1 MOL      0.126645
    131 H57       -12.1500    2.0170    1.6090 ha        1 MOL      0.106341
    132 H58       -12.4050   -0.5410   -1.8240 ha        1 MOL      0.106341
    133 H59       -13.3130    0.3380    0.3780 ha        1 MOL      0.096351
    134 N12        -7.0520   -0.9120   -1.2970 n         1 MOL     -0.055724
    135 C45        -7.0850   -2.3680   -1.0790 c3        1 MOL     -0.009737
    136 C46        -6.1240   -2.8680    0.0540 c         1 MOL      0.351535
    137 O20        -6.3420   -3.8570    0.7050 o         1 MOL     -0.516424
    138 C47        -6.8890   -2.9810   -2.4460 c3        1 MOL     -0.079079
    139 C48        -6.3150   -1.9130   -3.3300 c3        1 MOL     -0.048424
    140 C49        -7.0250   -0.6630   -2.7280 c3        1 MOL     -0.016424
    141 H60        -8.0970   -2.6000   -0.7370 h1        1 MOL      0.067527
    142 H61        -6.2450   -3.8640   -2.5000 hc        1 MOL      0.051629
    143 H62        -7.8620   -3.3110   -2.8100 hc        1 MOL      0.051629
    144 H63        -5.2400   -1.8190   -3.1590 hc        1 MOL      0.043145
    145 H64        -6.5820   -1.9460   -4.3880 hc        1 MOL      0.043145
    146 H65        -6.5790    0.3170   -2.9020 h1        1 MOL      0.009544
    147 H66        -8.0600   -0.6670   -3.0830 h1        1 MOL      0.009544
    148 N13        -5.0140   -2.2160    0.2970 n         1 MOL     -0.129707
    149 C50        -4.0130   -2.4810    1.3730 c3        1 MOL     -0.057665
    150 C51        -4.6160   -2.0220    2.7500 c         1 MOL      0.459285
    151 O21        -4.5260   -2.7390    3.7300 o         1 MOL     -0.544830
    152 C52        -2.8120   -1.6610    1.0120 c3        1 MOL     -0.141505
    153 C53        -2.1070   -2.3120   -0.1740 c3        1 MOL      0.064199
    154 C54        -0.7740   -1.5760   -0.4950 c         1 MOL      0.601723
    155 O22        -0.5250   -0.3630   -0.3050 o         1 MOL     -0.722407
    156 O23         0.1180   -2.1140   -1.1500 o         1 MOL     -0.722407
    157 H67        -4.8030   -1.4100   -0.2640 hn        1 MOL      0.119224
    158 H68        -3.7710   -3.5400    1.4820 h1        1 MOL      0.099999
    159 H69        -2.1330   -1.6370    1.8710 hc        1 MOL      0.074688
    160 H70        -3.2500   -0.6850    0.8100 hc        1 MOL      0.074688
    161 H71        -2.7110   -2.3010   -1.0790 hc        1 MOL      0.018691
    162 H72        -2.0230   -3.3920   -0.0340 hc        1 MOL      0.018691
    163 N14        -5.3170   -0.8520    2.7840 n         1 MOL      0.003258
    164 C55        -6.0600   -0.3180    3.9100 c3        1 MOL     -0.281634
    165 H73        -6.8230   -1.0350    4.2140 h1        1 MOL      0.093611
    166 H74        -5.3790   -0.1360    4.7420 h1        1 MOL      0.093611
    167 H75        -6.5380    0.6180    3.6200 h1        1 MOL      0.093611
    168 H76        -5.3240   -0.2590    1.9670 hn        1 MOL      0.057600
    169 Ca1         1.1750    0.2570   -1.9840 Ca        1 MOL      1.748388
    170 O24         3.7560    1.2270   -2.1110 oh        1 MOL     -0.833565
    171 H77         4.3770    1.8570   -2.4670 ho        1 MOL      0.386656
    172 H78         4.1280    0.9730   -1.2640 ho        1 MOL      0.386656
    173 O25         0.5550    2.4980   -3.1490 oh        1 MOL     -0.833565
    174 H79        -0.3480    2.5690   -3.4710 ho        1 MOL      0.386656
    175 H80         1.0420    3.1510   -3.6540 ho        1 MOL      0.386656
    176 O26         2.1300    0.6910   -4.8900 oh        1 MOL     -0.833565
    177 H81         2.2930   -0.2370   -4.7500 ho        1 MOL      0.386656
    178 H82         2.9920    1.0970   -4.8440 ho        1 MOL      0.386656
@<TRIPOS>BOND
     1    1    2 1   
     2    1    4 1   
     3    1    5 1   
     4    1    6 1   
     5    2    3 2   
     6    2    7 1   
     7    7    8 1   
     8    7   15 1   
     9    8    9 1   
    10    8   11 1   
    11    8   16 1   
    12    9   10 2   
    13    9   19 1   
    14   11   12 1   
    15   11   17 1   
    16   11   18 1   
    17   12   13 1   
    18   12   14 1   
    19   19   20 1   
    20   19   24 1   
    21   20   21 1   
    22   20   23 1   
    23   20   25 1   
    24   21   22 2   
    25   21   29 1   
    26   23   26 1   
    27   23   27 1   
    28   23   28 1   
    29   29   30 1   
    30   29   37 1   
    31   30   31 1   
    32   30   33 1   
    33   30   38 1   
    34   31   32 2   
    35   31   41 1   
    36   33   34 1   
    37   33   39 1   
    38   33   40 1   
    39   34   35 1   
    40   34   36 1   
    41   41   42 1   
    42   41   45 1   
    43   42   43 1   
    44   42   46 1   
    45   42   47 1   
    46   43   44 2   
    47   43   48 1   
    48   48   49 1   
    49   48   56 1   
    50   49   50 1   
    51   49   52 1   
    52   49   57 1   
    53   50   51 2   
    54   50   62 1   
    55   52   53 1   
    56   52   58 1   
    57   52   59 1   
    58   53   54 1   
    59   53   55 2   
    60   54   60 1   
    61   54   61 1   
    62   62   63 1   
    63   62   66 1   
    64   63   64 1   
    65   63   67 1   
    66   63   68 1   
    67   64   65 2   
    68   64   69 1   
    69   69   70 1   
    70   69   76 1   
    71   70   71 1   
    72   70   73 1   
    73   70   77 1   
    74   71   72 2   
    75   71   83 1   
    76   73   74 1   
    77   73   75 1   
    78   73   78 1   
    79   74   80 1   
    80   74   81 1   
    81   74   82 1   
    82   75   79 1   
    83   83   84 1   
    84   83   91 1   
    85   84   85 1   
    86   84   87 1   
    87   84   92 1   
    88   85   86 2   
    89   85  102 1   
    90   87   88 1   
    91   87   89 1   
    92   87   93 1   
    93   88   90 1   
    94   88   94 1   
    95   88   95 1   
    96   89   96 1   
    97   89   97 1   
    98   89   98 1   
    99   90   99 1   
   100   90  100 1   
   101   90  101 1   
   102  102  103 1   
   103  102  110 1   
   104  103  104 1   
   105  103  106 1   
   106  103  111 1   
   107  104  105 2   
   108  104  114 1   
   109  106  107 1   
   110  106  112 1   
   111  106  113 1   
   112  107  108 1   
   113  107  109 1   
   114  114  115 1   
   115  114  125 1   
   116  115  116 1   
   117  115  118 1   
   118  115  126 1   
   119  116  117 2   
   120  116  134 1   
   121  118  119 1   
   122  118  127 1   
   123  118  128 1   
   124  119  120 ar  
   125  119  121 ar  
   126  120  122 ar  
   127  120  129 1   
   128  121  123 ar  
   129  121  130 1   
   130  122  124 ar  
   131  122  131 1   
   132  123  124 ar  
   133  123  132 1   
   134  124  133 1   
   135  134  135 1   
   136  134  140 1   
   137  135  136 1   
   138  135  138 1   
   139  135  141 1   
   140  136  137 2   
   141  136  148 1   
   142  138  139 1   
   143  138  142 1   
   144  138  143 1   
   145  139  140 1   
   146  139  144 1   
   147  139  145 1   
   148  140  146 1   
   149  140  147 1   
   150  148  149 1   
   151  148  157 1   
   152  149  150 1   
   153  149  152 1   
   154  149  158 1   
   155  150  151 2   
   156  150  163 1   
   157  152  153 1   
   158  152  159 1   
   159  152  160 1   
   160  153  154 1   
   161  153  161 1   
   162  153  162 1   
   163  154  155 1   
   164  154  156 1   
   165  163  164 1   
   166  163  168 1   
   167  164  165 1   
   168  164  166 1   
   169  164  167 1   
   170  170  171 1   
   171  170  172 1   
   172  173  174 1   
   173  173  175 1   
   174  176  177 1   
   175  176  178 1   
@<TRIPOS>SUBSTRUCTURE
     1 MOL         1 TEMP              0 ****  ****    0 ROOT
