@<TRIPOS>MOLECULE
MOL
  189   185     1     0     0
SMALL
resp


@<TRIPOS>ATOM
      1 C1         -0.0000    2.3430    6.0920 c3        1 MOL     -0.402618
      2 C2         -0.4390    2.0950    4.6180 c         1 MOL      0.681920
      3 O1          0.3980    2.2460    3.7540 o         1 MOL     -0.638051
      4 H1          0.7600    1.6140    6.3710 hc        1 MOL      0.107476
      5 H2          0.4100    3.3490    6.1840 hc        1 MOL      0.107476
      6 H3         -0.8630    2.2390    6.7510 hc        1 MOL      0.107476
      7 N1         -1.6360    1.6860    4.3320 n         1 MOL     -0.472780
      8 C3         -2.1770    1.4290    2.9660 c3        1 MOL      0.053414
      9 C4         -2.5250    2.7330    2.3170 c         1 MOL      0.325315
     10 O2         -3.5690    3.3810    2.5560 o         1 MOL     -0.490130
     11 C5         -3.3960    0.5170    3.0830 c3        1 MOL     -0.007541
     12 C6         -3.9040   -0.0110    1.7600 c         1 MOL      0.589792
     13 O3         -5.0180   -0.5800    1.8060 o         1 MOL     -0.619782
     14 O4         -3.3700    0.4350    0.6830 o         1 MOL     -0.619782
     15 H4         -2.2750    1.6160    5.1070 hn        1 MOL      0.309216
     16 H5         -1.4330    0.9610    2.3260 h1        1 MOL     -0.001412
     17 H6         -4.1830    0.9850    3.6640 hc        1 MOL      0.023181
     18 H7         -3.0500   -0.3150    3.6980 hc        1 MOL      0.023181
     19 N2         -1.6530    3.2760    1.4760 n         1 MOL      0.027451
     20 C7         -1.5480    4.7010    1.3400 c3        1 MOL     -0.200348
     21 C8         -2.4540    5.2150    0.2550 c         1 MOL      0.480338
     22 O5         -2.8230    6.4110    0.1810 o         1 MOL     -0.590855
     23 C9         -0.0710    4.9880    1.0810 c3        1 MOL     -0.049983
     24 C10         0.3550    6.4370    0.9690 c3        1 MOL      0.109530
     25 C11         1.8720    6.7080    0.9820 c3        1 MOL     -0.168433
     26 C12         2.7520    5.9550   -0.0000 c3        1 MOL      0.109225
     27 N3          4.1910    6.4620   -0.0210 n4        1 MOL     -0.567675
     28 H8         -0.8340    2.7080    1.3990 hn        1 MOL      0.238017
     29 H9         -1.9120    5.2900    2.1860 h1        1 MOL      0.117064
     30 H10         0.1180    4.4320    0.1580 hc        1 MOL      0.034512
     31 H11         0.5110    4.4720    1.8330 hc        1 MOL      0.034512
     32 H12        -0.1610    7.0110    1.7450 hc        1 MOL      0.006309
     33 H13         0.0040    6.7990    0.0130 hc        1 MOL      0.006309
     34 H14         2.2340    6.5270    1.9930 hc        1 MOL      0.073071
     35 H15         1.8620    7.7920    0.8960 hc        1 MOL      0.073071
     36 H16         2.3220    5.8630   -0.9890 hx        1 MOL      0.082723
     37 H17         2.8740    4.8970    0.2070 hx        1 MOL      0.082723
     38 H18         4.8180    5.8550   -0.5190 hn        1 MOL      0.369976
     39 H19         4.2370    7.3990   -0.4060 hn        1 MOL      0.369976
     40 H20         4.5260    6.4270    0.9360 hn        1 MOL      0.369976
     41 N4         -2.8950    4.3220   -0.5840 n         1 MOL     -0.051302
     42 C13        -4.0660    4.4280   -1.5030 c3        1 MOL     -0.166310
     43 C14        -5.3090    3.5990   -1.1460 c         1 MOL      0.498907
     44 O6         -6.3510    3.7770   -1.7490 o         1 MOL     -0.521570
     45 C15        -3.6350    4.1610   -2.9800 c3        1 MOL     -0.117235
     46 C16        -2.8390    2.8800   -3.2450 c         1 MOL      0.612083
     47 O7         -2.5410    2.6440   -4.4420 o         1 MOL     -0.622990
     48 O8         -2.7350    2.0790   -2.2980 o         1 MOL     -0.622990
     49 H21        -2.3610    3.4650   -0.6380 hn        1 MOL      0.061770
     50 H22        -4.4200    5.4610   -1.5020 h1        1 MOL      0.113126
     51 H23        -3.0380    5.0010   -3.3390 hc        1 MOL      0.049535
     52 H24        -4.5610    4.1070   -3.5640 hc        1 MOL      0.049535
     53 N5         -5.2690    2.7440   -0.1420 n         1 MOL      0.059353
     54 C17        -6.4720    2.1610    0.4870 c3        1 MOL      0.012628
     55 C18        -7.3830    1.1880   -0.3690 c         1 MOL      0.446916
     56 O9         -8.4520    1.5410   -0.7710 o         1 MOL     -0.513184
     57 H25        -4.3740    2.4480    0.2240 hn        1 MOL     -0.178066
     58 H26        -7.1120    2.9930    0.7960 h1        1 MOL      0.033663
     59 H27        -6.1560    1.6580    1.3990 h1        1 MOL      0.033663
     60 N6         -6.7190    0.0930   -0.7830 n         1 MOL     -0.293910
     61 C19        -7.2050   -0.8680   -1.8440 c3        1 MOL      0.126432
     62 C20        -7.2640   -2.3410   -1.3570 c         1 MOL      0.309903
     63 O10        -7.4450   -3.2570   -2.0850 o         1 MOL     -0.469882
     64 C21        -6.2460   -0.6920   -3.0620 c3        1 MOL     -0.348051
     65 C22        -4.7390   -1.0100   -2.7380 c         1 MOL      0.737976
     66 O11        -3.8390   -0.3850   -3.2590 o         1 MOL     -0.689318
     67 O12        -4.4690   -1.7700   -1.8270 o         1 MOL     -0.689318
     68 H28        -5.8470   -0.0580   -0.2910 hn        1 MOL      0.138559
     69 H29        -8.2100   -0.5560   -2.1200 h1        1 MOL      0.084856
     70 H30        -6.4370    0.3120   -3.4330 hc        1 MOL      0.115263
     71 H31        -6.5680   -1.4280   -3.8070 hc        1 MOL      0.115263
     72 N7         -6.9310   -2.5470   -0.0750 n         1 MOL     -0.248139
     73 C23        -6.7730   -3.8980    0.5260 c3        1 MOL     -0.153432
     74 C24        -5.4060   -4.4860    0.7140 c         1 MOL      0.678745
     75 O13        -5.2600   -5.6400    1.1310 o         1 MOL     -0.608201
     76 H32        -6.8460   -1.7100    0.4860 hn        1 MOL      0.227352
     77 H33        -7.3230   -4.6410   -0.0500 h1        1 MOL      0.092182
     78 H34        -7.1730   -3.7970    1.5320 h1        1 MOL      0.092182
     79 N8         -4.3910   -3.6830    0.3160 n         1 MOL     -0.583523
     80 C25        -3.0480   -4.3050    0.2940 c3        1 MOL     -0.048852
     81 C26        -1.9700   -3.3580    0.6350 c         1 MOL      0.734837
     82 O14        -1.9990   -2.2280    0.2500 o         1 MOL     -0.688336
     83 C27        -2.7300   -4.9830   -1.1160 c3        1 MOL      0.584023
     84 C28        -2.9240   -6.4920   -0.9840 c3        1 MOL     -0.376027
     85 O15        -3.6470   -4.4750   -2.0700 oh        1 MOL     -0.717741
     86 H35        -4.5020   -2.7790   -0.1240 hn        1 MOL      0.442353
     87 H36        -3.0270   -5.0600    1.0760 h1        1 MOL      0.056193
     88 H37        -1.6890   -4.7510   -1.3520 h1        1 MOL     -0.125825
     89 H38        -3.9060   -3.5950   -1.8020 ho        1 MOL      0.494882
     90 H39        -3.9720   -6.6890   -0.7870 hc        1 MOL      0.089574
     91 H40        -2.6800   -7.0920   -1.8610 hc        1 MOL      0.089574
     92 H41        -2.2530   -6.8180   -0.1810 hc        1 MOL      0.089574
     93 N9         -0.9630   -3.8310    1.2820 n         1 MOL     -0.670032
     94 C29         0.2390   -3.0500    1.6050 c3        1 MOL      0.014156
     95 C30         1.3820   -3.6300    0.8560 c         1 MOL      0.483931
     96 O16         1.8360   -4.7850    1.1280 o         1 MOL     -0.547830
     97 C31         0.4690   -3.0240    3.1250 c3        1 MOL      0.038803
     98 C32        -0.6080   -2.1440    3.7790 c3        1 MOL      0.103771
     99 C33         1.8160   -2.5330    3.4910 c3        1 MOL     -0.218617
    100 C34        -0.5180   -2.0440    5.3250 c3        1 MOL     -0.235736
    101 H42        -1.0110   -4.8070    1.5630 hn        1 MOL      0.353434
    102 H43         0.1960   -2.0150    1.2520 h1        1 MOL      0.074094
    103 H44         0.3120   -4.0360    3.4840 hc        1 MOL      0.037331
    104 H45        -1.6070   -2.3540    3.4070 hc        1 MOL      0.004808
    105 H46        -0.4380   -1.1250    3.4450 hc        1 MOL      0.004808
    106 H47         1.9180   -2.5030    4.5760 hc        1 MOL      0.042022
    107 H48         2.6090   -3.1980    3.1220 hc        1 MOL      0.042022
    108 H49         1.9800   -1.5320    3.0820 hc        1 MOL      0.042022
    109 H50        -0.3960   -3.0150    5.8170 hc        1 MOL      0.054460
    110 H51         0.3300   -1.4080    5.5810 hc        1 MOL      0.054460
    111 H52        -1.3690   -1.4840    5.6860 hc        1 MOL      0.054460
    112 N10         1.8720   -2.8390   -0.1020 n         1 MOL     -0.094165
    113 C35         3.0820   -3.1350   -0.9840 c3        1 MOL     -0.379200
    114 C36         4.4030   -2.9060   -0.2410 c         1 MOL      0.534305
    115 O17         4.4040   -2.4190    0.8600 o         1 MOL     -0.364796
    116 C37         3.0640   -2.3340   -2.2590 c3        1 MOL      0.470043
    117 C38         1.9670   -2.7200   -3.1530 c3        1 MOL     -0.362513
    118 O18         2.9830   -0.9390   -2.1200 oh        1 MOL     -0.647124
    119 H53         1.2430   -2.1050   -0.3780 hn        1 MOL      0.221220
    120 H54         3.0260   -4.1800   -1.2850 h1        1 MOL      0.135554
    121 H55         4.0260   -2.4840   -2.7530 h1        1 MOL     -0.018786
    122 H56         2.1600   -0.7710   -1.6670 ho        1 MOL      0.432170
    123 H57         0.9890   -2.3550   -2.8290 hc        1 MOL      0.084008
    124 H58         2.1290   -2.1890   -4.0880 hc        1 MOL      0.084008
    125 H59         2.0240   -3.7700   -3.4330 hc        1 MOL      0.084008
    126 N11         5.5420   -3.2540   -0.8640 n         1 MOL     -0.363357
    127 C39         6.8860   -3.1300   -0.2970 c3        1 MOL     -0.250587
    128 C40         7.3510   -1.6630    0.0030 c         1 MOL      0.330805
    129 O19         8.0730   -1.4640    0.9690 o         1 MOL     -0.470425
    130 C41         7.9690   -3.8060   -1.2280 c3        1 MOL      0.357817
    131 C42         8.1850   -5.2960   -0.9880 c3        1 MOL     -0.349629
    132 O20         7.6360   -3.6530   -2.5220 oh        1 MOL     -0.630020
    133 H60         5.5120   -3.7690   -1.7350 hn        1 MOL      0.307231
    134 H61         6.8060   -3.7110    0.6300 h1        1 MOL      0.187258
    135 H62         8.8970   -3.2470   -1.1290 h1        1 MOL      0.027231
    136 H63         8.4140   -3.3060   -2.9730 ho        1 MOL      0.411377
    137 H64         8.9600   -5.7330   -1.6200 hc        1 MOL      0.102632
    138 H65         8.5270   -5.4840    0.0280 hc        1 MOL      0.102632
    139 H66         7.3140   -5.8840   -1.2530 hc        1 MOL      0.102632
    140 N12         6.6530   -0.6750   -0.5720 n         1 MOL     -0.162911
    141 C43         6.9000    0.7980   -0.4270 c3        1 MOL      0.045353
    142 C44         5.9150    1.2500    0.6810 c         1 MOL      0.220833
    143 O21         6.3030    2.1590    1.5030 o         1 MOL     -0.524661
    144 C45         6.6630    1.5730   -1.7480 c3        1 MOL     -0.195239
    145 C46         7.8580    1.3520   -2.6490 c3        1 MOL      0.066504
    146 C47         7.8150    2.0600   -3.9780 c3        1 MOL      0.011663
    147 C48         8.1540    3.5550   -4.0050 c3        1 MOL      0.012023
    148 N13         7.8770    4.2350   -5.3220 n4        1 MOL     -0.321986
    149 H67         5.9050   -0.9690   -1.1860 hn        1 MOL      0.218727
    150 H68         7.9270    0.9770   -0.1040 h1        1 MOL      0.124628
    151 H69         6.5780    2.6480   -1.6090 hc        1 MOL      0.050254
    152 H70         5.8200    1.1560   -2.2860 hc        1 MOL      0.050254
    153 H71         7.8110    0.2720   -2.7560 hc        1 MOL      0.007877
    154 H72         8.7960    1.5300   -2.1280 hc        1 MOL      0.007877
    155 H73         6.8730    1.7710   -4.4440 hc        1 MOL      0.026524
    156 H74         8.5330    1.5020   -4.5890 hc        1 MOL      0.026524
    157 H75         9.1450    3.7650   -3.6040 hx        1 MOL      0.075441
    158 H76         7.4310    3.9540   -3.2930 hx        1 MOL      0.075441
    159 H77         7.0740    3.7980   -5.7610 hn        1 MOL      0.271435
    160 H78         7.6490    5.2060   -5.2010 hn        1 MOL      0.271435
    161 H79         8.7220    4.0970   -5.8690 hn        1 MOL      0.271435
    162 N14         4.7920    0.5960    0.8950 n         1 MOL      0.052953
    163 C49         3.8220    0.9280    1.9250 c3        1 MOL     -0.127558
    164 C50         4.1870    0.3620    3.2810 c         1 MOL      0.484513
    165 O22         4.0860    1.0950    4.2350 o         1 MOL     -0.526540
    166 C51         2.4470    0.5830    1.5050 c3        1 MOL      0.200790
    167 C52         2.0760    1.3710    0.2300 c3        1 MOL     -0.061557
    168 C53         0.7180    0.8260   -0.2730 c         1 MOL      0.602451
    169 O23        -0.2590    1.6380   -0.2780 o         1 MOL     -0.705822
    170 O24         0.6260   -0.3830   -0.5540 o         1 MOL     -0.705822
    171 H80         4.5890   -0.2150    0.3430 hn        1 MOL      0.029983
    172 H81         3.7630    2.0140    1.9820 h1        1 MOL      0.065269
    173 H82         1.6380    0.8270    2.1880 hc        1 MOL      0.040534
    174 H83         2.4480   -0.4350    1.0920 hc        1 MOL      0.040534
    175 H84         2.8220    1.3530   -0.5660 hc        1 MOL     -0.046721
    176 H85         1.9590    2.4200    0.4840 hc        1 MOL     -0.046721
    177 N15         4.8660   -0.8210    3.2950 n         1 MOL     -0.095036
    178 C54         5.6380   -1.3200    4.4670 c3        1 MOL     -0.353892
    179 H86         5.7330   -2.4040    4.4040 h1        1 MOL      0.127317
    180 H87         6.6300   -0.8690    4.4680 h1        1 MOL      0.127317
    181 H88         5.1160   -1.0540    5.3870 h1        1 MOL      0.127317
    182 H89         4.8370   -1.3880    2.4540 hn        1 MOL      0.150226
    183 Ca1        -2.0340   -0.1430   -1.4390 Ca        1 MOL      1.750540
    184 O25        -0.4610    0.1890   -3.5560 oh        1 MOL     -0.826908
    185 H90        -0.8880    0.3180   -4.4030 ho        1 MOL      0.399269
    186 H91         0.3870    0.6200   -3.6530 ho        1 MOL      0.399269
    187 O26        -1.6760   -2.4950   -3.1270 oh        1 MOL     -0.826908
    188 H92        -1.0780   -2.3600   -3.8630 ho        1 MOL      0.399269
    189 H93        -2.3750   -3.0390   -3.4810 ho        1 MOL      0.399269
@<TRIPOS>BOND
     1    1    2 1   
     2    1    4 1   
     3    1    5 1   
     4    1    6 1   
     5    2    3 2   
     6    2    7 1   
     7    7    8 1   
     8    7   15 1   
     9    8    9 1   
    10    8   11 1   
    11    8   16 1   
    12    9   10 2   
    13    9   19 1   
    14   11   12 1   
    15   11   17 1   
    16   11   18 1   
    17   12   13 1   
    18   12   14 1   
    19   19   20 1   
    20   19   28 1   
    21   20   21 1   
    22   20   23 1   
    23   20   29 1   
    24   21   22 2   
    25   21   41 1   
    26   23   24 1   
    27   23   30 1   
    28   23   31 1   
    29   24   25 1   
    30   24   32 1   
    31   24   33 1   
    32   25   26 1   
    33   25   34 1   
    34   25   35 1   
    35   26   27 1   
    36   26   36 1   
    37   26   37 1   
    38   27   38 1   
    39   27   39 1   
    40   27   40 1   
    41   41   42 1   
    42   41   49 1   
    43   42   43 1   
    44   42   45 1   
    45   42   50 1   
    46   43   44 2   
    47   43   53 1   
    48   45   46 1   
    49   45   51 1   
    50   45   52 1   
    51   46   47 1   
    52   46   48 1   
    53   53   54 1   
    54   53   57 1   
    55   54   55 1   
    56   54   58 1   
    57   54   59 1   
    58   55   56 2   
    59   55   60 1   
    60   60   61 1   
    61   60   68 1   
    62   61   62 1   
    63   61   64 1   
    64   61   69 1   
    65   62   63 2   
    66   62   72 1   
    67   64   65 1   
    68   64   70 1   
    69   64   71 1   
    70   65   66 1   
    71   65   67 1   
    72   72   73 1   
    73   72   76 1   
    74   73   74 1   
    75   73   77 1   
    76   73   78 1   
    77   74   75 2   
    78   74   79 1   
    79   79   80 1   
    80   79   86 1   
    81   80   81 1   
    82   80   83 1   
    83   80   87 1   
    84   81   82 2   
    85   81   93 1   
    86   83   84 1   
    87   83   85 1   
    88   83   88 1   
    89   84   90 1   
    90   84   91 1   
    91   84   92 1   
    92   85   89 1   
    93   93   94 1   
    94   93  101 1   
    95   94   95 1   
    96   94   97 1   
    97   94  102 1   
    98   95   96 2   
    99   95  112 1   
   100   97   98 1   
   101   97   99 1   
   102   97  103 1   
   103   98  100 1   
   104   98  104 1   
   105   98  105 1   
   106   99  106 1   
   107   99  107 1   
   108   99  108 1   
   109  100  109 1   
   110  100  110 1   
   111  100  111 1   
   112  112  113 1   
   113  112  119 1   
   114  113  114 1   
   115  113  116 1   
   116  113  120 1   
   117  114  115 2   
   118  114  126 1   
   119  116  117 1   
   120  116  118 1   
   121  116  121 1   
   122  117  123 1   
   123  117  124 1   
   124  117  125 1   
   125  118  122 1   
   126  126  127 1   
   127  126  133 1   
   128  127  128 1   
   129  127  130 1   
   130  127  134 1   
   131  128  129 2   
   132  128  140 1   
   133  130  131 1   
   134  130  132 1   
   135  130  135 1   
   136  131  137 1   
   137  131  138 1   
   138  131  139 1   
   139  132  136 1   
   140  140  141 1   
   141  140  149 1   
   142  141  142 1   
   143  141  144 1   
   144  141  150 1   
   145  142  143 2   
   146  142  162 1   
   147  144  145 1   
   148  144  151 1   
   149  144  152 1   
   150  145  146 1   
   151  145  153 1   
   152  145  154 1   
   153  146  147 1   
   154  146  155 1   
   155  146  156 1   
   156  147  148 1   
   157  147  157 1   
   158  147  158 1   
   159  148  159 1   
   160  148  160 1   
   161  148  161 1   
   162  162  163 1   
   163  162  171 1   
   164  163  164 1   
   165  163  166 1   
   166  163  172 1   
   167  164  165 2   
   168  164  177 1   
   169  166  167 1   
   170  166  173 1   
   171  166  174 1   
   172  167  168 1   
   173  167  175 1   
   174  167  176 1   
   175  168  169 1   
   176  168  170 1   
   177  177  178 1   
   178  177  182 1   
   179  178  179 1   
   180  178  180 1   
   181  178  181 1   
   182  184  185 1   
   183  184  186 1   
   184  187  188 1   
   185  187  189 1   
@<TRIPOS>SUBSTRUCTURE
     1 MOL         1 TEMP              0 ****  ****    0 ROOT
