@<TRIPOS>MOLECULE
MOL
  178   175     1     0     0
SMALL
resp


@<TRIPOS>ATOM
      1 C1          0.0260    3.1790    5.6010 c3        1 MOL     -0.414966
      2 C2          0.0040    2.6340    4.1870 c         1 MOL      0.758598
      3 O1          0.7520    3.1290    3.3450 o         1 MOL     -0.567966
      4 H1          0.9570    2.8860    6.0870 hc        1 MOL      0.109684
      5 H2         -0.0430    4.2660    5.5730 hc        1 MOL      0.109684
      6 H3         -0.8180    2.7740    6.1600 hc        1 MOL      0.109684
      7 N1         -0.9920    1.7920    3.7230 n         1 MOL     -0.636299
      8 C3         -1.4630    1.7300    2.2700 c3        1 MOL      0.018820
      9 C4         -1.9340    3.1580    1.7820 c         1 MOL      0.622137
     10 O2         -2.8150    3.7490    2.3870 o         1 MOL     -0.578645
     11 C5         -2.6040    0.7130    2.1620 c3        1 MOL     -0.176814
     12 C6         -3.2070    0.4410    0.7990 c         1 MOL      0.407317
     13 O3         -2.6080    0.7960   -0.2220 o         1 MOL     -0.480649
     14 O4         -4.2540   -0.2140    0.7100 o         1 MOL     -0.480649
     15 H4         -1.6990    1.4290    4.3430 hn        1 MOL      0.306904
     16 H5         -0.6750    1.3900    1.6000 h1        1 MOL      0.034169
     17 H6         -3.4210    1.0750    2.7840 hc        1 MOL      0.084100
     18 H7         -2.2070   -0.1960    2.6210 hc        1 MOL      0.084100
     19 N2         -1.4680    3.6050    0.6250 n         1 MOL     -0.413278
     20 C7         -1.8540    4.8720   -0.0150 c3        1 MOL      0.302852
     21 C8         -3.1190    4.7460   -0.8260 c         1 MOL      0.261944
     22 O5         -3.7950    5.6880   -1.1980 o         1 MOL     -0.551415
     23 C9         -0.6370    5.4120   -0.8980 c3        1 MOL     -0.328102
     24 H8         -0.7450    3.0640    0.1730 hn        1 MOL      0.278265
     25 H9         -2.0540    5.5880    0.7820 h1        1 MOL      0.013735
     26 H10         0.0960    5.7280   -0.1460 hc        1 MOL      0.087635
     27 H11        -0.2080    4.7300   -1.6370 hc        1 MOL      0.087635
     28 H12        -1.0240    6.3010   -1.3930 hc        1 MOL      0.087635
     29 N3         -3.5500    3.4890   -1.0720 n         1 MOL      0.300584
     30 C10        -4.8860    3.2930   -1.6940 c3        1 MOL     -0.244374
     31 C11        -6.0270    2.9390   -0.7610 c         1 MOL      0.441209
     32 O6         -7.1830    3.0830   -1.2270 o         1 MOL     -0.520008
     33 C12        -4.6160    2.0890   -2.6510 c3        1 MOL     -0.008189
     34 C13        -3.3020    2.2810   -3.4980 c         1 MOL      0.602046
     35 O7         -2.2660    1.5430   -3.3740 o         1 MOL     -0.677241
     36 O8         -3.3540    3.1370   -4.4370 o         1 MOL     -0.677241
     37 H13        -3.0930    2.6720   -0.7060 hn        1 MOL     -0.167418
     38 H14        -5.1380    4.1690   -2.2830 h1        1 MOL      0.153185
     39 H15        -5.5320    1.8600   -3.2040 hc        1 MOL     -0.010570
     40 H16        -4.4630    1.2010   -2.0540 hc        1 MOL     -0.010570
     41 N4         -5.6430    2.6460    0.5420 n         1 MOL     -0.073050
     42 C14        -6.5520    2.3460    1.6020 c3        1 MOL     -0.313036
     43 C15        -7.6050    1.1830    1.4660 c         1 MOL      0.459129
     44 O9         -8.5370    1.0280    2.2450 o         1 MOL     -0.532939
     45 H17        -4.6630    2.6500    0.7990 hn        1 MOL      0.052813
     46 H18        -7.2120    3.1970    1.7860 h1        1 MOL      0.138133
     47 H19        -5.9320    2.1370    2.4740 h1        1 MOL      0.138133
     48 N5         -7.3490    0.3290    0.4710 n         1 MOL     -0.221026
     49 C16        -8.0900   -0.9160    0.2040 c3        1 MOL     -0.180772
     50 C17        -7.6610   -1.9510    1.3100 c         1 MOL      0.517230
     51 O10        -8.5370   -2.7640    1.6570 o         1 MOL     -0.545904
     52 C18        -7.7750   -1.6240   -1.1320 c3        1 MOL     -0.314454
     53 C19        -8.5450   -1.0250   -2.2880 c         1 MOL      0.677507
     54 N6         -8.9120    0.2110   -2.3450 n         1 MOL     -0.621129
     55 O11        -8.8410   -1.7200   -3.2780 o         1 MOL     -0.618417
     56 H20        -6.4630    0.4320    0.0050 hn        1 MOL      0.288038
     57 H21        -9.1690   -0.8040    0.3490 h1        1 MOL      0.137726
     58 H22        -7.9930   -2.6830   -0.9750 hc        1 MOL      0.122818
     59 H23        -6.7140   -1.6370   -1.3790 hc        1 MOL      0.122818
     60 H24        -8.8710    0.7820   -1.5150 hn        1 MOL      0.310877
     61 H25        -9.6200    0.4040   -3.0340 hn        1 MOL      0.310877
     62 N7         -6.4080   -1.9040    1.8860 n         1 MOL     -0.154178
     63 C20        -5.6870   -2.7710    2.7680 c3        1 MOL     -0.055765
     64 C21        -4.6600   -3.7260    2.1520 c         1 MOL      0.698324
     65 O12        -4.6800   -4.8540    2.5870 o         1 MOL     -0.597401
     66 H26        -5.9160   -1.1190    1.4860 hn        1 MOL      0.069666
     67 H27        -6.3630   -3.4480    3.2960 h1        1 MOL      0.035725
     68 H28        -5.1100   -2.1240    3.4290 h1        1 MOL      0.035725
     69 N8         -3.8390   -3.3010    1.1900 n         1 MOL     -0.468230
     70 C22        -2.6080   -4.1330    0.7850 c3        1 MOL      0.006458
     71 C23        -1.3790   -3.1730    0.7010 c         1 MOL      0.499627
     72 O13        -1.5440   -2.0570    0.1920 o         1 MOL     -0.397121
     73 C24        -2.8400   -4.8240   -0.5370 c3        1 MOL      0.312444
     74 C25        -3.5800   -6.1150   -0.5790 c3        1 MOL     -0.488295
     75 O14        -3.5540   -3.9450   -1.4160 oh        1 MOL     -0.607912
     76 H29        -3.8420   -2.3020    1.0230 hn        1 MOL      0.218453
     77 H30        -2.2950   -4.8090    1.5900 h1        1 MOL      0.067982
     78 H31        -1.9030   -5.0310   -1.0340 h1        1 MOL      0.019547
     79 H32        -3.5880   -4.3860   -2.2720 ho        1 MOL      0.415207
     80 H33        -4.5150   -6.0170   -0.0320 hc        1 MOL      0.129364
     81 H34        -3.7640   -6.3790   -1.6270 hc        1 MOL      0.129364
     82 H35        -3.0190   -6.9220   -0.1100 hc        1 MOL      0.129364
     83 N9         -0.2220   -3.6100    1.2120 n         1 MOL     -0.553223
     84 C26         0.9140   -2.7110    1.2400 c3        1 MOL      0.031351
     85 C27         1.9270   -3.0760    0.1540 c         1 MOL      0.589768
     86 O15         2.2390   -4.2510    0.0510 o         1 MOL     -0.613127
     87 C28         1.4980   -2.7130    2.6200 c3        1 MOL      0.096145
     88 C29         0.5550   -1.7670    3.5130 c3        1 MOL      0.095949
     89 C30         2.9350   -2.2110    2.7560 c3        1 MOL     -0.174857
     90 C31         0.7450   -1.9690    5.0250 c3        1 MOL     -0.177281
     91 H36        -0.1710   -4.5090    1.6760 hn        1 MOL      0.334010
     92 H37         0.7000   -1.6580    1.0240 h1        1 MOL     -0.023738
     93 H38         1.4380   -3.7280    3.0090 hc        1 MOL     -0.006343
     94 H39        -0.4760   -1.9500    3.2220 hc        1 MOL      0.009184
     95 H40         0.8200   -0.7340    3.2880 hc        1 MOL      0.009184
     96 H41         3.1330   -2.2900    3.8180 hc        1 MOL      0.036036
     97 H42         3.5880   -2.9260    2.2590 hc        1 MOL      0.036036
     98 H43         3.0010   -1.1830    2.4000 hc        1 MOL      0.036036
     99 H44         0.1320   -1.2170    5.5200 hc        1 MOL      0.026018
    100 H45         0.3150   -2.9180    5.3330 hc        1 MOL      0.026018
    101 H46         1.7740   -1.8340    5.3410 hc        1 MOL      0.026018
    102 N10         2.3150   -2.1550   -0.6890 n         1 MOL     -0.263400
    103 C32         3.5000   -2.2090   -1.6480 c3        1 MOL      0.089782
    104 C33         4.7650   -1.7600   -0.9340 c         1 MOL      0.344659
    105 O16         4.6880   -1.1520    0.1390 o         1 MOL     -0.294694
    106 C34         3.2810   -1.2820   -2.8150 c3        1 MOL     -0.335374
    107 C35         1.8750   -1.4110   -3.4380 c         1 MOL      0.729842
    108 O17         1.4020   -2.5410   -3.7480 o         1 MOL     -0.697633
    109 O18         1.1270   -0.4120   -3.4130 o         1 MOL     -0.697633
    110 H47         1.9640   -1.2430   -0.4460 hn        1 MOL      0.133347
    111 H48         3.5800   -3.2060   -2.0690 h1        1 MOL      0.071661
    112 H49         4.0400   -1.4880   -3.5690 hc        1 MOL      0.091619
    113 H50         3.4900   -0.2580   -2.5020 hc        1 MOL      0.091619
    114 N11         5.9600   -1.9150   -1.5280 n         1 MOL     -0.540918
    115 C36         7.2720   -1.4420   -0.8450 c3        1 MOL      0.242956
    116 C37         7.2040    0.0010   -0.3830 c         1 MOL      0.370790
    117 O19         7.5420    0.2390    0.7910 o         1 MOL     -0.490836
    118 C38         8.4780   -1.5730   -1.7890 c3        1 MOL     -0.260488
    119 C39         9.8110   -1.4000   -1.0800 ca        1 MOL      0.175893
    120 C40        10.2600   -2.1440    0.0340 ca        1 MOL     -0.222304
    121 C41        10.7350   -0.4260   -1.6490 ca        1 MOL     -0.222304
    122 C42        11.4480   -1.7620    0.6700 ca        1 MOL     -0.103030
    123 C43        11.9890   -0.1140   -1.0260 ca        1 MOL     -0.103030
    124 C44        12.2760   -0.7650    0.1610 ca        1 MOL     -0.088587
    125 H51         6.0550   -2.5810   -2.2820 hn        1 MOL      0.316605
    126 H52         7.3450   -2.0820    0.0340 h1        1 MOL      0.077550
    127 H53         8.4300   -0.8960   -2.6450 hc        1 MOL      0.079799
    128 H54         8.5140   -2.5770   -2.2120 hc        1 MOL      0.079799
    129 H55         9.7030   -2.9540    0.4780 ha        1 MOL      0.135134
    130 H56        10.4590    0.2040   -2.4850 ha        1 MOL      0.135134
    131 H57        11.6900   -2.1810    1.6410 ha        1 MOL      0.115262
    132 H58        12.6380    0.6330   -1.4690 ha        1 MOL      0.115262
    133 H59        13.2130   -0.5120    0.6450 ha        1 MOL      0.084684
    134 N12         6.8070    1.0150   -1.2410 n         1 MOL     -0.107072
    135 C45         6.9070    2.4270   -0.7520 c3        1 MOL     -0.077722
    136 C46         5.8750    2.8160    0.3790 c         1 MOL      0.381830
    137 O20         5.7820    3.9050    0.8910 o         1 MOL     -0.510258
    138 C47         6.7230    3.2230   -2.0690 c3        1 MOL      0.004545
    139 C48         6.0270    2.3170   -3.0880 c3        1 MOL     -0.036725
    140 C49         6.5040    0.9280   -2.7210 c3        1 MOL      0.021498
    141 H60         7.9110    2.5920   -0.3680 h1        1 MOL      0.088725
    142 H61         6.1040    4.0830   -1.8240 hc        1 MOL      0.019030
    143 H62         7.6950    3.5830   -2.4270 hc        1 MOL      0.019030
    144 H63         4.9450    2.4500   -2.9540 hc        1 MOL      0.040141
    145 H64         6.3420    2.6530   -4.0720 hc        1 MOL      0.040141
    146 H65         5.6840    0.2230   -2.8410 h1        1 MOL      0.020831
    147 H66         7.3390    0.6850   -3.3850 h1        1 MOL      0.020831
    148 N13         4.9130    1.9080    0.6480 n         1 MOL     -0.051188
    149 C50         4.0080    2.0020    1.7470 c3        1 MOL     -0.150781
    150 C51         4.5110    1.2280    3.0300 c         1 MOL      0.472566
    151 O21         4.4060    1.7500    4.1340 o         1 MOL     -0.546156
    152 C52         2.6570    1.4210    1.2590 c3        1 MOL      0.018507
    153 C53         2.0270    2.1720    0.0810 c3        1 MOL      0.057367
    154 C54         0.9080    1.4400   -0.6290 c         1 MOL      0.744275
    155 O22         0.7160    0.2310   -0.3540 o         1 MOL     -0.729640
    156 O23         0.1870    1.9640   -1.4710 o         1 MOL     -0.729640
    157 H67         4.8110    1.0510    0.1180 hn        1 MOL      0.130276
    158 H68         3.7990    3.0440    1.9790 h1        1 MOL      0.120264
    159 H69         1.9820    1.3710    2.1110 hc        1 MOL      0.040316
    160 H70         2.7500    0.3930    0.8920 hc        1 MOL      0.040316
    161 H71         2.7810    2.2820   -0.6990 hc        1 MOL     -0.028777
    162 H72         1.7660    3.1890    0.3920 hc        1 MOL     -0.028777
    163 N14         5.3310    0.1870    2.7920 n         1 MOL     -0.037860
    164 C55         6.1340   -0.3500    3.8680 c3        1 MOL     -0.280923
    165 H73         6.6420   -1.2520    3.5250 h1        1 MOL      0.095982
    166 H74         6.8740    0.3890    4.1740 h1        1 MOL      0.095982
    167 H75         5.4920   -0.5940    4.7140 h1        1 MOL      0.095982
    168 H76         5.4110   -0.1500    1.8410 hn        1 MOL      0.034602
    169 Ca1        -1.1730   -0.3510   -2.0410 Ca        1 MOL      1.742013
    170 O24        -1.6290   -0.6600   -4.7490 oh        1 MOL     -0.844210
    171 H77        -1.1620   -0.9010   -5.5430 ho        1 MOL      0.394583
    172 H78        -1.9160    0.2380   -4.8940 ho        1 MOL      0.394583
    173 O25        -3.8540   -1.3300   -1.8190 oh        1 MOL     -0.844210
    174 H79        -3.9960   -2.2700   -1.6750 ho        1 MOL      0.394583
    175 H80        -4.0130   -0.9340   -0.9680 ho        1 MOL      0.394583
    176 O26        -1.1120   -2.9820   -2.7840 oh        1 MOL     -0.844210
    177 H81        -1.5800   -3.7510   -3.1240 ho        1 MOL      0.394583
    178 H82        -0.2720   -2.9910   -3.2390 ho        1 MOL      0.394583
@<TRIPOS>BOND
     1    1    2 1   
     2    1    4 1   
     3    1    5 1   
     4    1    6 1   
     5    2    3 2   
     6    2    7 1   
     7    7    8 1   
     8    7   15 1   
     9    8    9 1   
    10    8   11 1   
    11    8   16 1   
    12    9   10 2   
    13    9   19 1   
    14   11   12 1   
    15   11   17 1   
    16   11   18 1   
    17   12   13 1   
    18   12   14 1   
    19   19   20 1   
    20   19   24 1   
    21   20   21 1   
    22   20   23 1   
    23   20   25 1   
    24   21   22 2   
    25   21   29 1   
    26   23   26 1   
    27   23   27 1   
    28   23   28 1   
    29   29   30 1   
    30   29   37 1   
    31   30   31 1   
    32   30   33 1   
    33   30   38 1   
    34   31   32 2   
    35   31   41 1   
    36   33   34 1   
    37   33   39 1   
    38   33   40 1   
    39   34   35 1   
    40   34   36 1   
    41   41   42 1   
    42   41   45 1   
    43   42   43 1   
    44   42   46 1   
    45   42   47 1   
    46   43   44 2   
    47   43   48 1   
    48   48   49 1   
    49   48   56 1   
    50   49   50 1   
    51   49   52 1   
    52   49   57 1   
    53   50   51 2   
    54   50   62 1   
    55   52   53 1   
    56   52   58 1   
    57   52   59 1   
    58   53   54 1   
    59   53   55 2   
    60   54   60 1   
    61   54   61 1   
    62   62   63 1   
    63   62   66 1   
    64   63   64 1   
    65   63   67 1   
    66   63   68 1   
    67   64   65 2   
    68   64   69 1   
    69   69   70 1   
    70   69   76 1   
    71   70   71 1   
    72   70   73 1   
    73   70   77 1   
    74   71   72 2   
    75   71   83 1   
    76   73   74 1   
    77   73   75 1   
    78   73   78 1   
    79   74   80 1   
    80   74   81 1   
    81   74   82 1   
    82   75   79 1   
    83   83   84 1   
    84   83   91 1   
    85   84   85 1   
    86   84   87 1   
    87   84   92 1   
    88   85   86 2   
    89   85  102 1   
    90   87   88 1   
    91   87   89 1   
    92   87   93 1   
    93   88   90 1   
    94   88   94 1   
    95   88   95 1   
    96   89   96 1   
    97   89   97 1   
    98   89   98 1   
    99   90   99 1   
   100   90  100 1   
   101   90  101 1   
   102  102  103 1   
   103  102  110 1   
   104  103  104 1   
   105  103  106 1   
   106  103  111 1   
   107  104  105 2   
   108  104  114 1   
   109  106  107 1   
   110  106  112 1   
   111  106  113 1   
   112  107  108 1   
   113  107  109 1   
   114  114  115 1   
   115  114  125 1   
   116  115  116 1   
   117  115  118 1   
   118  115  126 1   
   119  116  117 2   
   120  116  134 1   
   121  118  119 1   
   122  118  127 1   
   123  118  128 1   
   124  119  120 ar  
   125  119  121 ar  
   126  120  122 ar  
   127  120  129 1   
   128  121  123 ar  
   129  121  130 1   
   130  122  124 ar  
   131  122  131 1   
   132  123  124 ar  
   133  123  132 1   
   134  124  133 1   
   135  134  135 1   
   136  134  140 1   
   137  135  136 1   
   138  135  138 1   
   139  135  141 1   
   140  136  137 2   
   141  136  148 1   
   142  138  139 1   
   143  138  142 1   
   144  138  143 1   
   145  139  140 1   
   146  139  144 1   
   147  139  145 1   
   148  140  146 1   
   149  140  147 1   
   150  148  149 1   
   151  148  157 1   
   152  149  150 1   
   153  149  152 1   
   154  149  158 1   
   155  150  151 2   
   156  150  163 1   
   157  152  153 1   
   158  152  159 1   
   159  152  160 1   
   160  153  154 1   
   161  153  161 1   
   162  153  162 1   
   163  154  155 1   
   164  154  156 1   
   165  163  164 1   
   166  163  168 1   
   167  164  165 1   
   168  164  166 1   
   169  164  167 1   
   170  170  171 1   
   171  170  172 1   
   172  173  174 1   
   173  173  175 1   
   174  176  177 1   
   175  176  178 1   
@<TRIPOS>SUBSTRUCTURE
     1 MOL         1 TEMP              0 ****  ****    0 ROOT
