@<TRIPOS>MOLECULE
MOL
  175   173     1     0     0
SMALL
resp


@<TRIPOS>ATOM
      1 C1         -1.0900    3.4890    5.7120 c3        1 MOL     -0.352573
      2 C2         -1.2750    3.2340    4.2350 c         1 MOL      0.788596
      3 O1         -0.4570    3.7210    3.4280 o         1 MOL     -0.603420
      4 H1         -2.0660    3.5780    6.1890 hc        1 MOL      0.079126
      5 H2         -0.5420    2.6600    6.1580 hc        1 MOL      0.079126
      6 H3         -0.5310    4.4140    5.8540 hc        1 MOL      0.079126
      7 N1         -2.3490    2.5300    3.9050 n         1 MOL     -0.734900
      8 C3         -2.6700    2.1280    2.5200 c3        1 MOL      0.396180
      9 C4         -3.1550    3.3850    1.7960 c         1 MOL      0.500804
     10 O2         -4.1740    4.0450    2.0770 o         1 MOL     -0.582656
     11 C5         -3.8080    1.1230    2.6370 c3        1 MOL     -0.332621
     12 C6         -4.3750    0.7090    1.2650 c         1 MOL      0.664931
     13 O3         -5.4430    0.0660    1.2800 o         1 MOL     -0.582348
     14 O4         -3.8250    1.0660    0.1940 o         1 MOL     -0.582348
     15 H4         -2.9440    2.1580    4.6300 hn        1 MOL      0.345804
     16 H5         -1.8010    1.7630    1.9640 h1        1 MOL     -0.082154
     17 H6         -4.6480    1.5210    3.1870 hc        1 MOL      0.065127
     18 H7         -3.4450    0.2550    3.1790 hc        1 MOL      0.065127
     19 N2         -2.3740    3.6980    0.7340 n         1 MOL     -0.274254
     20 C7         -2.4940    4.8940   -0.1000 c3        1 MOL      0.046992
     21 C8         -3.6470    4.8310   -1.2060 c         1 MOL      0.567082
     22 O5         -3.9310    5.8910   -1.8240 o         1 MOL     -0.585807
     23 C9         -1.1740    5.0870   -0.7650 c3        1 MOL     -0.154865
     24 H8         -1.5080    3.2270    0.5420 hn        1 MOL      0.223895
     25 H9         -2.7150    5.7800    0.4920 h1        1 MOL      0.048878
     26 H10        -1.2050    6.0410   -1.2900 hc        1 MOL      0.048508
     27 H11        -0.3060    5.0680   -0.1030 hc        1 MOL      0.048508
     28 H12        -1.0180    4.2820   -1.4880 hc        1 MOL      0.048508
     29 N3         -4.3190    3.7140   -1.4070 n         1 MOL     -0.468629
     30 C10        -5.2300    3.5010   -2.5430 c3        1 MOL      0.140149
     31 C11        -6.5600    2.7500   -2.1960 c         1 MOL      0.378650
     32 O6         -7.3140    2.4660   -3.1030 o         1 MOL     -0.513746
     33 C12        -4.5080    2.8000   -3.6980 c3        1 MOL     -0.165886
     34 C13        -3.5720    1.6550   -3.2070 c         1 MOL      0.762051
     35 O7         -4.0770    0.5160   -2.9790 o         1 MOL     -0.729192
     36 O8         -2.3210    1.8020   -3.0140 o         1 MOL     -0.729192
     37 H13        -4.0310    2.9570   -0.8050 hn        1 MOL      0.128491
     38 H14        -5.5580    4.4960   -2.8660 h1        1 MOL      0.083837
     39 H15        -3.9470    3.5380   -4.2730 hc        1 MOL      0.038833
     40 H16        -5.2040    2.4720   -4.4710 hc        1 MOL      0.038833
     41 N4         -6.7860    2.4310   -0.9480 n         1 MOL     -0.236459
     42 C14        -7.9610    1.6820   -0.5020 c3        1 MOL     -0.215290
     43 C15        -8.0150    0.2560   -0.9780 c         1 MOL      0.569399
     44 O9         -9.1590   -0.2260   -1.0670 o         1 MOL     -0.606064
     45 H17        -6.0570    2.6230   -0.2740 hn        1 MOL      0.262239
     46 H18        -8.7800    2.2700   -0.9070 h1        1 MOL      0.119216
     47 H19        -8.0570    1.6640    0.5890 h1        1 MOL      0.119216
     48 N5         -6.9740   -0.5580   -1.1780 n         1 MOL     -0.128411
     49 C16        -7.0190   -1.9840   -1.4420 c3        1 MOL     -0.135578
     50 C17        -6.9640   -2.9360   -0.2130 c         1 MOL      0.493790
     51 O10        -7.3930   -4.0700   -0.2970 o         1 MOL     -0.590059
     52 C18        -5.9070   -2.3590   -2.4540 c3        1 MOL     -0.055577
     53 C19        -4.5490   -2.5140   -1.8580 c         1 MOL      0.352994
     54 N6         -3.7360   -3.4870   -2.2480 n         1 MOL     -0.723365
     55 O11        -4.1880   -1.7720   -0.9830 o         1 MOL     -0.108322
     56 H20        -6.0860   -0.0860   -1.0810 hn        1 MOL      0.076136
     57 H21        -7.9300   -2.2560   -1.9680 h1        1 MOL      0.115482
     58 H22        -5.9630   -1.7340   -3.3420 hc        1 MOL      0.058054
     59 H23        -6.1490   -3.3470   -2.8570 hc        1 MOL      0.058054
     60 H24        -3.9920   -4.0720   -3.0340 hn        1 MOL      0.339098
     61 H25        -2.9510   -3.6470   -1.6410 hn        1 MOL      0.339098
     62 N7         -6.4990   -2.4040    0.8930 n         1 MOL     -0.050598
     63 C20        -6.3740   -3.0890    2.1480 c3        1 MOL     -0.249871
     64 C21        -4.9570   -3.4690    2.6050 c         1 MOL      0.475645
     65 O12        -4.8310   -4.1200    3.6580 o         1 MOL     -0.555712
     66 H26        -6.2010   -1.4470    0.7840 hn        1 MOL      0.041096
     67 H27        -7.0380   -3.9420    2.2770 h1        1 MOL      0.125819
     68 H28        -6.7030   -2.3590    2.8930 h1        1 MOL      0.125819
     69 N8         -3.9300   -3.1940    1.7520 n         1 MOL     -0.032310
     70 C22        -2.5640   -3.6260    1.9720 c3        1 MOL     -0.066630
     71 C23        -1.5060   -2.5640    1.6480 c         1 MOL      0.460720
     72 O13        -1.8100   -1.5500    1.0110 o         1 MOL     -0.550565
     73 C24        -2.3110   -4.9450    1.1330 c3        1 MOL      0.180262
     74 C25        -3.3710   -6.0850    1.3070 c3        1 MOL     -0.301713
     75 O14        -2.0790   -4.8740   -0.2380 oh        1 MOL     -0.623252
     76 H29        -4.1020   -2.5910    0.9500 hn        1 MOL     -0.023369
     77 H30        -2.4200   -3.8150    3.0310 h1        1 MOL      0.074598
     78 H31        -1.3960   -5.4550    1.4410 h1        1 MOL      0.043801
     79 H32        -2.4050   -5.7290   -0.5010 ho        1 MOL      0.420827
     80 H33        -4.2720   -5.7290    0.8100 hc        1 MOL      0.090470
     81 H34        -3.1700   -7.0800    0.9110 hc        1 MOL      0.090470
     82 H35        -3.5540   -6.2540    2.3700 hc        1 MOL      0.090470
     83 N9         -0.3090   -2.7390    2.1510 n         1 MOL     -0.275257
     84 C26         0.8650   -1.8650    1.7730 c3        1 MOL     -0.284987
     85 C27         1.9100   -2.5710    0.9180 c         1 MOL      0.505091
     86 O15         2.4780   -3.5990    1.2830 o         1 MOL     -0.559163
     87 C28         1.3650   -1.0290    2.9770 c3        1 MOL      0.323562
     88 C29         2.0750   -1.8590    3.9830 c3        1 MOL      0.011113
     89 C30         0.3080   -0.0710    3.5790 c3        1 MOL     -0.297576
     90 C31         2.8530   -0.9940    4.9230 c3        1 MOL     -0.020599
     91 H36        -0.1730   -3.5950    2.6660 hn        1 MOL      0.238268
     92 H37         0.5040   -1.1690    1.0110 h1        1 MOL      0.362385
     93 H38         2.1170   -0.3370    2.6080 hc        1 MOL     -0.119790
     94 H39         2.7600   -2.4990    3.4360 hc        1 MOL     -0.025710
     95 H40         1.3030   -2.4390    4.4900 hc        1 MOL     -0.025710
     96 H41        -0.1960    0.4470    2.7600 hc        1 MOL      0.067297
     97 H42        -0.4220   -0.6040    4.1830 hc        1 MOL      0.067297
     98 H43         0.8120    0.6740    4.1900 hc        1 MOL      0.067297
     99 H44         2.1100   -0.4890    5.5370 hc        1 MOL     -0.004317
    100 H45         3.5180   -1.5180    5.6150 hc        1 MOL     -0.004317
    101 H46         3.5310   -0.3340    4.3800 hc        1 MOL     -0.004317
    102 N10         2.1180   -2.1110   -0.3210 n         1 MOL     -0.275126
    103 C32         3.3080   -2.3440   -1.1300 c3        1 MOL      0.077913
    104 C33         4.5820   -1.6130   -0.5110 c         1 MOL      0.466069
    105 O16         4.4140   -0.7020    0.2500 o         1 MOL     -0.337789
    106 C34         2.8770   -1.8670   -2.5320 c3        1 MOL     -0.141043
    107 C35         3.8180   -2.2460   -3.6600 c         1 MOL      0.679170
    108 O17         3.6250   -1.7860   -4.7730 o         1 MOL     -0.709580
    109 O18         4.7300   -3.0670   -3.4490 o         1 MOL     -0.709580
    110 H47         1.4450   -1.4510   -0.6870 hn        1 MOL      0.038731
    111 H48         3.5930   -3.3880   -1.0890 h1        1 MOL      0.043038
    112 H49         2.7400   -0.7800   -2.5770 hc        1 MOL      0.047401
    113 H50         1.9340   -2.3780   -2.7460 hc        1 MOL      0.047401
    114 N11         5.7900   -1.8800   -0.9830 n         1 MOL     -0.558582
    115 C36         7.1120   -1.3400   -0.5690 c3        1 MOL      0.327766
    116 C37         7.1350    0.1980   -0.5290 c         1 MOL      0.329803
    117 O19         7.6150    0.6610    0.4640 o         1 MOL     -0.538375
    118 C38         8.2730   -1.9790   -1.3920 c3        1 MOL     -0.238960
    119 C39         9.6780   -1.5530   -0.9520 ca        1 MOL      0.256017
    120 C40        10.0560   -1.9550    0.3130 ca        1 MOL     -0.299516
    121 C41        10.5580   -0.8260   -1.7480 ca        1 MOL     -0.299516
    122 C42        11.2560   -1.5050    0.8330 ca        1 MOL      0.004932
    123 C43        11.7810   -0.3340   -1.2170 ca        1 MOL      0.004932
    124 C44        12.1580   -0.6720    0.0990 ca        1 MOL     -0.237430
    125 H51         5.8170   -2.5220   -1.7590 hn        1 MOL      0.246311
    126 H52         7.2950   -1.6870    0.4510 h1        1 MOL      0.046947
    127 H53         8.0810   -1.8210   -2.4520 hc        1 MOL      0.080188
    128 H54         8.3050   -3.0560   -1.2260 hc        1 MOL      0.080188
    129 H55         9.4270   -2.4670    1.0240 ha        1 MOL      0.141696
    130 H56        10.1580   -0.5110   -2.7010 ha        1 MOL      0.141696
    131 H57        11.5290   -1.7710    1.8460 ha        1 MOL      0.081314
    132 H58        12.4600    0.3000   -1.7700 ha        1 MOL      0.081314
    133 H59        13.0640   -0.2850    0.5450 ha        1 MOL      0.128126
    134 N12         6.6550    1.0180   -1.4380 n         1 MOL     -0.040700
    135 C45         6.6460    2.4670   -1.2730 c3        1 MOL     -0.021234
    136 C46         5.6210    3.0570   -0.2410 c         1 MOL      0.342106
    137 O20         5.8510    4.0770    0.3870 o         1 MOL     -0.526223
    138 C47         6.3840    3.0450   -2.6290 c3        1 MOL     -0.136770
    139 C48         5.7090    1.9140   -3.4290 c3        1 MOL     -0.107657
    140 C49         6.0560    0.6110   -2.7310 c3        1 MOL     -0.000390
    141 H60         7.6680    2.7120   -0.9980 h1        1 MOL      0.088503
    142 H61         5.8680    3.9930   -2.7520 hc        1 MOL      0.064535
    143 H62         7.3490    3.2000   -3.1100 hc        1 MOL      0.064535
    144 H63         4.6320    1.9870   -3.2830 hc        1 MOL      0.054399
    145 H64         6.0290    1.7540   -4.4610 hc        1 MOL      0.054399
    146 H65         5.0750    0.1520   -2.6000 h1        1 MOL      0.057594
    147 H66         6.8280    0.0690   -3.2720 h1        1 MOL      0.057594
    148 N13         4.5650    2.3260    0.1110 n         1 MOL     -0.135247
    149 C50         3.6430    2.6920    1.1600 c3        1 MOL     -0.106951
    150 C51         4.1380    2.2210    2.5690 c         1 MOL      0.448499
    151 O21         3.6970    2.7700    3.6280 o         1 MOL     -0.557795
    152 C52         2.2970    2.0260    0.8670 c3        1 MOL      0.154698
    153 C53         1.7540    2.0450   -0.5760 c3        1 MOL     -0.449009
    154 C54         0.4850    1.1210   -0.6710 c         1 MOL      0.796218
    155 O22        -0.5450    1.4810   -0.0180 o         1 MOL     -0.685020
    156 O23         0.4300    0.1370   -1.4170 o         1 MOL     -0.685020
    157 H67         4.5080    1.3890   -0.2750 hn        1 MOL      0.176307
    158 H68         3.5820    3.7710    1.2730 h1        1 MOL      0.109955
    159 H69         1.6380    2.4330    1.6390 hc        1 MOL      0.049995
    160 H70         2.4020    0.9650    1.0740 hc        1 MOL      0.049995
    161 H71         2.5110    1.5570   -1.1930 hc        1 MOL      0.105981
    162 H72         1.4500    3.0400   -0.8790 hc        1 MOL      0.105981
    163 N14         5.0450    1.2270    2.5250 n         1 MOL     -0.007680
    164 C55         5.8650    0.8930    3.6690 c3        1 MOL     -0.113008
    165 H73         5.2420    0.8510    4.5620 h1        1 MOL      0.052839
    166 H74         6.3360   -0.0760    3.5090 h1        1 MOL      0.052839
    167 H75         6.6350    1.6540    3.7990 h1        1 MOL      0.052839
    168 H76         5.0690    0.6440    1.6960 hn        1 MOL      0.023059
    169 Ca1        -2.1100   -0.2310   -1.2940 Ca        1 MOL      1.537523
    170 O24        -1.6130   -1.2250   -3.7620 oh        1 MOL     -0.806694
    171 H77        -1.1260   -0.6210   -4.3110 ho        1 MOL      0.399369
    172 H78        -1.2140   -2.0820   -3.9330 ho        1 MOL      0.399369
    173 O25        -1.0000   -2.8580   -1.4280 oh        1 MOL     -0.806694
    174 H79        -1.2050   -3.5710   -0.8330 ho        1 MOL      0.399369
    175 H80        -0.8390   -3.2870   -2.2710 ho        1 MOL      0.399369
@<TRIPOS>BOND
     1    1    2 1   
     2    1    4 1   
     3    1    5 1   
     4    1    6 1   
     5    2    3 2   
     6    2    7 1   
     7    7    8 1   
     8    7   15 1   
     9    8    9 1   
    10    8   11 1   
    11    8   16 1   
    12    9   10 2   
    13    9   19 1   
    14   11   12 1   
    15   11   17 1   
    16   11   18 1   
    17   12   13 1   
    18   12   14 1   
    19   19   20 1   
    20   19   24 1   
    21   20   21 1   
    22   20   23 1   
    23   20   25 1   
    24   21   22 2   
    25   21   29 1   
    26   23   26 1   
    27   23   27 1   
    28   23   28 1   
    29   29   30 1   
    30   29   37 1   
    31   30   31 1   
    32   30   33 1   
    33   30   38 1   
    34   31   32 2   
    35   31   41 1   
    36   33   34 1   
    37   33   39 1   
    38   33   40 1   
    39   34   35 1   
    40   34   36 1   
    41   41   42 1   
    42   41   45 1   
    43   42   43 1   
    44   42   46 1   
    45   42   47 1   
    46   43   44 2   
    47   43   48 1   
    48   48   49 1   
    49   48   56 1   
    50   49   50 1   
    51   49   52 1   
    52   49   57 1   
    53   50   51 2   
    54   50   62 1   
    55   52   53 1   
    56   52   58 1   
    57   52   59 1   
    58   53   54 1   
    59   53   55 2   
    60   54   60 1   
    61   54   61 1   
    62   62   63 1   
    63   62   66 1   
    64   63   64 1   
    65   63   67 1   
    66   63   68 1   
    67   64   65 2   
    68   64   69 1   
    69   69   70 1   
    70   69   76 1   
    71   70   71 1   
    72   70   73 1   
    73   70   77 1   
    74   71   72 2   
    75   71   83 1   
    76   73   74 1   
    77   73   75 1   
    78   73   78 1   
    79   74   80 1   
    80   74   81 1   
    81   74   82 1   
    82   75   79 1   
    83   83   84 1   
    84   83   91 1   
    85   84   85 1   
    86   84   87 1   
    87   84   92 1   
    88   85   86 2   
    89   85  102 1   
    90   87   88 1   
    91   87   89 1   
    92   87   93 1   
    93   88   90 1   
    94   88   94 1   
    95   88   95 1   
    96   89   96 1   
    97   89   97 1   
    98   89   98 1   
    99   90   99 1   
   100   90  100 1   
   101   90  101 1   
   102  102  103 1   
   103  102  110 1   
   104  103  104 1   
   105  103  106 1   
   106  103  111 1   
   107  104  105 2   
   108  104  114 1   
   109  106  107 1   
   110  106  112 1   
   111  106  113 1   
   112  107  108 1   
   113  107  109 1   
   114  114  115 1   
   115  114  125 1   
   116  115  116 1   
   117  115  118 1   
   118  115  126 1   
   119  116  117 2   
   120  116  134 1   
   121  118  119 1   
   122  118  127 1   
   123  118  128 1   
   124  119  120 ar  
   125  119  121 ar  
   126  120  122 ar  
   127  120  129 1   
   128  121  123 ar  
   129  121  130 1   
   130  122  124 ar  
   131  122  131 1   
   132  123  124 ar  
   133  123  132 1   
   134  124  133 1   
   135  134  135 1   
   136  134  140 1   
   137  135  136 1   
   138  135  138 1   
   139  135  141 1   
   140  136  137 2   
   141  136  148 1   
   142  138  139 1   
   143  138  142 1   
   144  138  143 1   
   145  139  140 1   
   146  139  144 1   
   147  139  145 1   
   148  140  146 1   
   149  140  147 1   
   150  148  149 1   
   151  148  157 1   
   152  149  150 1   
   153  149  152 1   
   154  149  158 1   
   155  150  151 2   
   156  150  163 1   
   157  152  153 1   
   158  152  159 1   
   159  152  160 1   
   160  153  154 1   
   161  153  161 1   
   162  153  162 1   
   163  154  155 1   
   164  154  156 1   
   165  163  164 1   
   166  163  168 1   
   167  164  165 1   
   168  164  166 1   
   169  164  167 1   
   170  170  171 1   
   171  170  172 1   
   172  173  174 1   
   173  173  175 1   
@<TRIPOS>SUBSTRUCTURE
     1 MOL         1 TEMP              0 ****  ****    0 ROOT
