@<TRIPOS>MOLECULE
MOL
  176   174     1     0     0
SMALL
resp


@<TRIPOS>ATOM
      1 C1          1.1300   -5.8140    5.2970 c3        1 MOL     -0.380619
      2 C2          1.0590   -5.2320    3.8590 c         1 MOL      0.690933
      3 O1          0.1140   -5.5070    3.0850 o         1 MOL     -0.624809
      4 H1          1.6390   -6.7780    5.2740 hc        1 MOL      0.109630
      5 H2          1.6820   -5.1280    5.9410 hc        1 MOL      0.109630
      6 H3          0.1210   -5.9460    5.6860 hc        1 MOL      0.109630
      7 N1          2.0370   -4.3880    3.4780 n         1 MOL     -0.494536
      8 C3          2.0460   -3.5060    2.3540 c3        1 MOL      0.108956
      9 C4          2.2800   -4.4670    1.1130 c         1 MOL      0.381611
     10 O2          3.0680   -5.4290    1.1580 o         1 MOL     -0.554473
     11 C5          3.1890   -2.4940    2.4080 c3        1 MOL     -0.219609
     12 C6          3.0230   -1.4790    1.3430 c         1 MOL      0.744296
     13 O3          2.9880   -1.9400    0.1520 o         1 MOL     -0.735423
     14 O4          2.9460   -0.2480    1.5180 o         1 MOL     -0.735423
     15 H4          2.9090   -4.3100    3.9840 hn        1 MOL      0.294345
     16 H5          1.1040   -2.9760    2.3410 h1        1 MOL      0.080278
     17 H6          4.0830   -3.1080    2.3780 hc        1 MOL      0.083785
     18 H7          3.1320   -2.0100    3.3840 hc        1 MOL      0.083785
     19 N2          1.4380   -4.2660    0.1040 n         1 MOL     -0.054381
     20 C7          1.2620   -5.0350   -1.1330 c3        1 MOL     -0.043404
     21 C8          2.1970   -4.6740   -2.3050 c         1 MOL      0.523589
     22 O5          1.9170   -5.0310   -3.4380 o         1 MOL     -0.519870
     23 C9         -0.1920   -4.9710   -1.5970 c3        1 MOL     -0.057462
     24 C10        -1.1410   -5.6470   -0.5780 c3        1 MOL     -0.184306
     25 C11        -0.9640   -7.2150   -0.4340 c3        1 MOL     -0.141890
     26 C12        -2.0220   -7.6740    0.5620 c3        1 MOL      0.038815
     27 N3         -1.4390   -7.7370    1.8680 n4        1 MOL     -0.277190
     28 H8          0.9590   -3.3790    0.1560 hn        1 MOL      0.089941
     29 H9          1.5350   -6.0510   -0.8820 h1        1 MOL      0.043074
     30 H10        -0.2810   -5.3770   -2.6050 hc        1 MOL      0.081464
     31 H11        -0.5080   -3.9420   -1.7540 hc        1 MOL      0.081464
     32 H12        -2.1600   -5.4460   -0.9160 hc        1 MOL      0.098131
     33 H13        -1.0530   -5.1910    0.4010 hc        1 MOL      0.098131
     34 H14         0.0160   -7.4780   -0.0310 hc        1 MOL      0.086376
     35 H15        -1.1050   -7.7830   -1.3490 hc        1 MOL      0.086376
     36 H16        -2.3750   -8.6230    0.1530 hx        1 MOL      0.074404
     37 H17        -2.8660   -6.9870    0.6420 hx        1 MOL      0.074404
     38 H18        -1.0690   -6.8430    2.1570 hn        1 MOL      0.296318
     39 H19        -2.0830   -7.9750    2.6140 hn        1 MOL      0.296318
     40 H20        -0.6870   -8.4070    1.9880 hn        1 MOL      0.296318
     41 N4          3.1720   -3.7560   -2.1010 n         1 MOL     -0.404116
     42 C13         4.2580   -3.3900   -3.0050 c3        1 MOL     -0.005691
     43 C14         5.5160   -2.9310   -2.2750 c         1 MOL      0.410673
     44 O6          6.5830   -2.6750   -2.8380 o         1 MOL     -0.519913
     45 C15         3.7830   -2.4010   -3.9950 c3        1 MOL     -0.010580
     46 C16         3.2210   -1.1420   -3.3080 c         1 MOL      0.702791
     47 O7          2.0540   -0.7630   -3.4670 o         1 MOL     -0.740218
     48 O8          3.8600   -0.6120   -2.3700 o         1 MOL     -0.740218
     49 H21         3.2410   -3.2330   -1.2390 hn        1 MOL      0.248992
     50 H22         4.5140   -4.2190   -3.6640 h1        1 MOL      0.105687
     51 H23         3.0300   -2.8110   -4.6740 hc        1 MOL      0.018740
     52 H24         4.6030   -2.1460   -4.6530 hc        1 MOL      0.018740
     53 N5          5.5090   -2.7460   -0.9310 n         1 MOL     -0.263215
     54 C17         6.6040   -2.3310   -0.1180 c3        1 MOL     -0.148995
     55 C18         6.8480   -0.8460   -0.0930 c         1 MOL      0.497300
     56 O9          7.7800   -0.4740    0.6410 o         1 MOL     -0.588711
     57 H25         4.6210   -2.7520   -0.4420 hn        1 MOL      0.181496
     58 H26         7.5420   -2.7840   -0.4240 h1        1 MOL      0.112222
     59 H27         6.3410   -2.6770    0.8750 h1        1 MOL      0.112222
     60 N6          6.1420   -0.0230   -0.8500 n         1 MOL     -0.171193
     61 C19         6.3210    1.3860   -0.8110 c3        1 MOL     -0.042267
     62 C20         5.9990    2.1220    0.5050 c         1 MOL      0.327163
     63 O10         6.2370    3.3070    0.5540 o         1 MOL     -0.431953
     64 C21         5.6820    1.9470   -2.0870 c3        1 MOL     -0.383476
     65 C22         4.1060    2.1520   -2.0150 c         1 MOL      0.652720
     66 N7          3.4090    2.4030   -3.0740 n         1 MOL     -0.645497
     67 O11         3.5560    1.9770   -0.9440 o         1 MOL     -0.521623
     68 H28         5.4350   -0.4080   -1.4610 hn        1 MOL      0.212560
     69 H29         7.3920    1.5130   -0.9820 h1        1 MOL      0.121157
     70 H30         5.8540    1.2530   -2.9130 hc        1 MOL      0.133770
     71 H31         6.1070    2.9190   -2.3170 hc        1 MOL      0.133770
     72 H32         3.9550    2.4140   -3.9250 hn        1 MOL      0.315696
     73 H33         2.4470    2.7100   -3.0300 hn        1 MOL      0.315696
     74 N8          5.3010    1.4970    1.4380 n         1 MOL     -0.041530
     75 C23         4.9480    2.1160    2.7030 c3        1 MOL     -0.424767
     76 C24         3.8290    3.2050    2.6950 c         1 MOL      0.487610
     77 O12         3.7080    4.0480    3.6320 o         1 MOL     -0.551055
     78 H34         4.8660    0.5930    1.2690 hn        1 MOL      0.162077
     79 H35         5.7870    2.6740    3.1290 h1        1 MOL      0.171425
     80 H36         4.5320    1.3070    3.3000 h1        1 MOL      0.171425
     81 N9          2.9230    3.1680    1.6750 n         1 MOL     -0.109747
     82 C25         1.6360    3.8490    1.4600 c3        1 MOL      0.173244
     83 C26         0.4480    2.8170    1.4760 c         1 MOL      0.158354
     84 O13         0.6670    1.6930    0.9610 o         1 MOL     -0.494056
     85 C27         1.5350    4.5660    0.1300 c3        1 MOL      0.166025
     86 C28         2.3400    5.7910    0.0580 ca        1 MOL     -0.177508
     87 C29         3.6840    5.8270   -0.4340 ca        1 MOL     -0.060721
     88 C30         1.7790    7.0300    0.5410 ca        1 MOL     -0.060721
     89 C31         4.4110    6.9790   -0.5660 ca        1 MOL     -0.299202
     90 C32         2.4780    8.2050    0.4190 ca        1 MOL     -0.299202
     91 C33         3.7890    8.1870   -0.1580 ca        1 MOL      0.384638
     92 O14         4.4070    9.3660   -0.3570 oh        1 MOL     -0.465849
     93 H37         3.1510    2.4570    0.9910 hn        1 MOL      0.160697
     94 H38         1.4570    4.6320    2.1930 h1        1 MOL      0.013462
     95 H39         0.4840    4.8060    0.0180 hc        1 MOL     -0.040638
     96 H40         1.9100    3.9050   -0.6500 hc        1 MOL     -0.040638
     97 H41         4.1830    4.9330   -0.7880 ha        1 MOL      0.099264
     98 H42         0.7550    7.1240    0.8740 ha        1 MOL      0.099264
     99 H43         5.3980    7.0070   -1.0120 ha        1 MOL      0.157805
    100 H44         2.0660    9.1490    0.7620 ha        1 MOL      0.157805
    101 H45         3.7930   10.0900   -0.2660 ho        1 MOL      0.332055
    102 N10        -0.8110    3.1320    1.7770 n         1 MOL     -0.060964
    103 C34        -1.9920    2.3320    1.4340 c3        1 MOL     -0.179478
    104 C35        -3.0730    3.1950    0.7940 c         1 MOL      0.589518
    105 O15        -3.4670    4.3070    1.2010 o         1 MOL     -0.549816
    106 C36        -2.6410    1.6040    2.7120 c3        1 MOL      0.072068
    107 C37        -2.9460    2.5020    3.9270 c3        1 MOL     -0.000629
    108 C38        -1.7610    0.4250    3.1800 c3        1 MOL     -0.464803
    109 C39        -3.4260    1.7980    5.2290 c3        1 MOL     -0.082972
    110 H46        -0.9760    4.0620    2.1520 hn        1 MOL      0.211561
    111 H47        -1.7470    1.5870    0.6710 h1        1 MOL      0.083419
    112 H48        -3.6090    1.1550    2.4420 hc        1 MOL      0.038580
    113 H49        -3.7310    3.1660    3.5780 hc        1 MOL      0.009676
    114 H50        -2.0110    3.0420    4.1170 hc        1 MOL      0.009676
    115 H51        -2.3050   -0.2500    3.8390 hc        1 MOL      0.133772
    116 H52        -1.4790   -0.0730    2.2580 hc        1 MOL      0.133772
    117 H53        -0.7570    0.6230    3.5760 hc        1 MOL      0.133772
    118 H54        -4.4110    1.3560    5.0620 hc        1 MOL      0.025199
    119 H55        -2.7170    1.0450    5.5700 hc        1 MOL      0.025199
    120 H56        -3.5510    2.5480    6.0070 hc        1 MOL      0.025199
    121 N11        -3.4870    2.8020   -0.3830 n         1 MOL     -0.431366
    122 C40        -4.7510    3.2960   -1.0120 c3        1 MOL      0.040656
    123 C41        -5.9640    2.6960   -0.3190 c         1 MOL      0.345583
    124 O16        -5.8600    1.8140    0.5330 o         1 MOL     -0.312478
    125 C42        -4.8050    2.9100   -2.5040 c3        1 MOL     -0.044263
    126 O17        -5.0270    1.5410   -2.6600 oh        1 MOL     -0.394723
    127 H57        -3.3510    1.8100   -0.5120 hn        1 MOL      0.279579
    128 H58        -4.8110    4.3720   -0.9000 h1        1 MOL      0.110260
    129 H59        -3.8620    3.1600   -3.0000 h1        1 MOL      0.066158
    130 H60        -5.5540    3.4780   -3.0660 h1        1 MOL      0.066158
    131 H61        -5.3250    1.3760   -3.5550 ho        1 MOL      0.373001
    132 N12        -7.1390    3.2280   -0.6060 n         1 MOL     -0.290637
    133 C43        -8.4250    2.6270   -0.2500 c3        1 MOL      0.031997
    134 C44        -8.5470    1.1920   -0.6960 c         1 MOL      0.588231
    135 O18        -8.9920    0.3950    0.0690 o         1 MOL     -0.515201
    136 C45        -9.4840    3.6580   -0.7470 c3        1 MOL     -0.188986
    137 H62        -7.1790    4.0550   -1.1820 hn        1 MOL      0.233017
    138 H63        -8.3960    2.6740    0.8420 h1        1 MOL      0.084656
    139 H64       -10.4210    3.4620   -0.2220 hc        1 MOL      0.065616
    140 H65        -9.1990    4.7040   -0.6080 hc        1 MOL      0.065616
    141 H66        -9.7390    3.4490   -1.7810 hc        1 MOL      0.065616
    142 N13        -8.0720    0.8340   -1.9240 n         1 MOL     -0.459874
    143 C46        -7.9630   -0.4850   -2.4590 c3        1 MOL      0.250802
    144 C47        -7.0160   -1.4820   -1.7360 c         1 MOL      0.329353
    145 O19        -7.2870   -2.7010   -1.8270 o         1 MOL     -0.501898
    146 C48        -7.5390   -0.4170   -3.9390 c3        1 MOL     -0.365832
    147 H67        -7.7410    1.6070   -2.4840 hn        1 MOL      0.258154
    148 H68        -8.9840   -0.8810   -2.3840 h1        1 MOL      0.066128
    149 H69        -8.4970   -0.1350   -4.3910 hc        1 MOL      0.102626
    150 H70        -6.9240    0.4590   -4.1060 hc        1 MOL      0.102626
    151 H71        -7.3310   -1.3840   -4.4040 hc        1 MOL      0.102626
    152 N14        -5.8780   -0.9330   -1.1730 n         1 MOL      0.095378
    153 C49        -4.8390   -1.6600   -0.5000 c3        1 MOL     -0.088074
    154 C50        -5.2480   -1.8200    0.9990 c         1 MOL      0.425709
    155 O20        -5.2600   -2.9740    1.4590 o         1 MOL     -0.551998
    156 C51        -3.4580   -1.0920   -0.6100 c3        1 MOL      0.348688
    157 C52        -2.3180   -1.9290   -0.1050 c3        1 MOL     -0.019185
    158 C53        -0.9270   -1.3580   -0.5420 c         1 MOL      0.742133
    159 O21        -0.9190   -0.2450   -1.1200 o         1 MOL     -0.727870
    160 O22         0.1370   -1.9650   -0.5210 o         1 MOL     -0.727870
    161 H72        -5.8090    0.0600   -1.3120 hn        1 MOL     -0.294345
    162 H73        -4.8540   -2.6720   -0.9140 h1        1 MOL      0.078526
    163 H74        -3.4150   -0.1710   -0.0340 hc        1 MOL     -0.064928
    164 H75        -3.2310   -0.9840   -1.6720 hc        1 MOL     -0.064928
    165 H76        -2.4400   -2.9330   -0.5120 hc        1 MOL     -0.073785
    166 H77        -2.3680   -1.8220    0.9760 hc        1 MOL     -0.073785
    167 N15        -5.8320   -0.7720    1.6200 n         1 MOL     -0.038541
    168 C54        -6.4850   -0.9950    2.9430 c3        1 MOL     -0.284506
    169 H78        -5.8260   -0.6440    3.7370 h1        1 MOL      0.106975
    170 H79        -7.4260   -0.4450    2.9810 h1        1 MOL      0.106975
    171 H80        -6.6790   -2.0600    3.0770 h1        1 MOL      0.106975
    172 H81        -5.9580    0.1300    1.1790 hn        1 MOL      0.089030
    173 Ca1         1.7560    0.1140   -0.8950 Ca        1 MOL      1.731305
    174 O23         0.6470    2.1960   -2.3610 oh        1 MOL     -0.778536
    175 H82         0.2570    1.7580   -3.1150 ho        1 MOL      0.404428
    176 H83         0.1750    3.0240   -2.2870 ho        1 MOL      0.404428
@<TRIPOS>BOND
     1    1    2 1   
     2    1    4 1   
     3    1    5 1   
     4    1    6 1   
     5    2    3 2   
     6    2    7 1   
     7    7    8 1   
     8    7   15 1   
     9    8    9 1   
    10    8   11 1   
    11    8   16 1   
    12    9   10 2   
    13    9   19 1   
    14   11   12 1   
    15   11   17 1   
    16   11   18 1   
    17   12   13 1   
    18   12   14 1   
    19   19   20 1   
    20   19   28 1   
    21   20   21 1   
    22   20   23 1   
    23   20   29 1   
    24   21   22 2   
    25   21   41 1   
    26   23   24 1   
    27   23   30 1   
    28   23   31 1   
    29   24   25 1   
    30   24   32 1   
    31   24   33 1   
    32   25   26 1   
    33   25   34 1   
    34   25   35 1   
    35   26   27 1   
    36   26   36 1   
    37   26   37 1   
    38   27   38 1   
    39   27   39 1   
    40   27   40 1   
    41   41   42 1   
    42   41   49 1   
    43   42   43 1   
    44   42   45 1   
    45   42   50 1   
    46   43   44 2   
    47   43   53 1   
    48   45   46 1   
    49   45   51 1   
    50   45   52 1   
    51   46   47 1   
    52   46   48 1   
    53   53   54 1   
    54   53   57 1   
    55   54   55 1   
    56   54   58 1   
    57   54   59 1   
    58   55   56 2   
    59   55   60 1   
    60   60   61 1   
    61   60   68 1   
    62   61   62 1   
    63   61   64 1   
    64   61   69 1   
    65   62   63 2   
    66   62   74 1   
    67   64   65 1   
    68   64   70 1   
    69   64   71 1   
    70   65   66 1   
    71   65   67 2   
    72   66   72 1   
    73   66   73 1   
    74   74   75 1   
    75   74   78 1   
    76   75   76 1   
    77   75   79 1   
    78   75   80 1   
    79   76   77 2   
    80   76   81 1   
    81   81   82 1   
    82   81   93 1   
    83   82   83 1   
    84   82   85 1   
    85   82   94 1   
    86   83   84 2   
    87   83  102 1   
    88   85   86 1   
    89   85   95 1   
    90   85   96 1   
    91   86   87 ar  
    92   86   88 ar  
    93   87   89 ar  
    94   87   97 1   
    95   88   90 ar  
    96   88   98 1   
    97   89   91 ar  
    98   89   99 1   
    99   90   91 ar  
   100   90  100 1   
   101   91   92 1   
   102   92  101 1   
   103  102  103 1   
   104  102  110 1   
   105  103  104 1   
   106  103  106 1   
   107  103  111 1   
   108  104  105 2   
   109  104  121 1   
   110  106  107 1   
   111  106  108 1   
   112  106  112 1   
   113  107  109 1   
   114  107  113 1   
   115  107  114 1   
   116  108  115 1   
   117  108  116 1   
   118  108  117 1   
   119  109  118 1   
   120  109  119 1   
   121  109  120 1   
   122  121  122 1   
   123  121  127 1   
   124  122  123 1   
   125  122  125 1   
   126  122  128 1   
   127  123  124 2   
   128  123  132 1   
   129  125  126 1   
   130  125  129 1   
   131  125  130 1   
   132  126  131 1   
   133  132  133 1   
   134  132  137 1   
   135  133  134 1   
   136  133  136 1   
   137  133  138 1   
   138  134  135 2   
   139  134  142 1   
   140  136  139 1   
   141  136  140 1   
   142  136  141 1   
   143  142  143 1   
   144  142  147 1   
   145  143  144 1   
   146  143  146 1   
   147  143  148 1   
   148  144  145 2   
   149  144  152 1   
   150  146  149 1   
   151  146  150 1   
   152  146  151 1   
   153  152  153 1   
   154  152  161 1   
   155  153  154 1   
   156  153  156 1   
   157  153  162 1   
   158  154  155 2   
   159  154  167 1   
   160  156  157 1   
   161  156  163 1   
   162  156  164 1   
   163  157  158 1   
   164  157  165 1   
   165  157  166 1   
   166  158  159 1   
   167  158  160 1   
   168  167  168 1   
   169  167  172 1   
   170  168  169 1   
   171  168  170 1   
   172  168  171 1   
   173  174  175 1   
   174  174  176 1   
@<TRIPOS>SUBSTRUCTURE
     1 MOL         1 TEMP              0 ****  ****    0 ROOT
