@<TRIPOS>MOLECULE
MOL
  178   175     1     0     0
SMALL
resp


@<TRIPOS>ATOM
      1 C1         -0.4820    4.1590    5.4150 c3        1 MOL     -0.304255
      2 C2         -0.7320    3.5760    4.0040 c         1 MOL      0.712437
      3 O1          0.0660    3.7370    3.0110 o         1 MOL     -0.614248
      4 H1         -1.0850    3.6160    6.1440 hc        1 MOL      0.074613
      5 H2          0.5730    4.0580    5.6690 hc        1 MOL      0.074613
      6 H3         -0.7600    5.2130    5.4270 hc        1 MOL      0.074613
      7 N1         -1.8300    2.8490    3.8940 n         1 MOL     -0.686760
      8 C3         -2.2570    2.2460    2.6280 c3        1 MOL      0.379658
      9 C4         -2.7080    3.4700    1.8090 c         1 MOL      0.600165
     10 O2         -3.6500    4.1410    2.1750 o         1 MOL     -0.603269
     11 C5         -3.3490    1.2290    2.8880 c3        1 MOL     -0.254391
     12 C6         -3.9580    0.7320    1.5770 c         1 MOL      0.881357
     13 O3         -5.1960    0.3830    1.6750 o         1 MOL     -0.702153
     14 O4         -3.3170    0.7300    0.5220 o         1 MOL     -0.702153
     15 H4         -2.2750    2.5300    4.7290 hn        1 MOL      0.345984
     16 H5         -1.4500    1.6760    2.1680 h1        1 MOL     -0.103016
     17 H6         -4.0790    1.7420    3.5230 hc        1 MOL      0.023178
     18 H7         -2.8630    0.4000    3.3960 hc        1 MOL      0.023178
     19 N2         -2.0500    3.7180    0.6830 n         1 MOL     -0.279777
     20 C7         -2.1720    4.9520   -0.0400 c3        1 MOL      0.140395
     21 C8         -3.3590    4.8730   -1.0770 c         1 MOL      0.473326
     22 O5         -3.9560    5.9150   -1.3500 o         1 MOL     -0.573370
     23 C9         -0.8530    5.3880   -0.6930 c3        1 MOL     -0.231518
     24 H8         -1.6130    2.9250    0.2450 hn        1 MOL      0.097651
     25 H9         -2.5120    5.7650    0.5980 h1        1 MOL      0.049907
     26 H10        -0.6170    4.7030   -1.4960 hc        1 MOL      0.060817
     27 H11        -0.9490    6.3990   -1.0830 hc        1 MOL      0.060817
     28 H12        -0.0280    5.3720    0.0210 hc        1 MOL      0.060817
     29 N3         -3.7860    3.6590   -1.4660 n         1 MOL     -0.264865
     30 C10        -5.0110    3.5050   -2.3610 c3        1 MOL      0.089592
     31 C11        -6.2870    2.9830   -1.6450 c         1 MOL      0.350947
     32 O6         -7.4080    2.9660   -2.1870 o         1 MOL     -0.516334
     33 C12        -4.8290    2.8000   -3.6310 c3        1 MOL     -0.288069
     34 C13        -4.3990    1.2690   -3.5250 c         1 MOL      0.818344
     35 O7         -4.1420    0.7880   -2.3830 o         1 MOL     -0.720489
     36 O8         -4.2070    0.5790   -4.5550 o         1 MOL     -0.720489
     37 H13        -3.4120    2.7740   -1.1490 hn        1 MOL      0.104778
     38 H14        -5.1880    4.5450   -2.6610 h1        1 MOL      0.097606
     39 H15        -3.9700    3.1990   -4.1720 hc        1 MOL      0.073033
     40 H16        -5.7210    2.8790   -4.2470 hc        1 MOL      0.073033
     41 N4         -6.1880    2.5460   -0.3780 n         1 MOL     -0.159034
     42 C14        -7.3430    2.0450    0.3420 c3        1 MOL     -0.249992
     43 C15        -7.7670    0.6360   -0.0820 c         1 MOL      0.585041
     44 O9         -8.9240    0.2820    0.1740 o         1 MOL     -0.588781
     45 H17        -5.2840    2.3260    0.0210 hn        1 MOL      0.149646
     46 H18        -8.1700    2.7130    0.1010 h1        1 MOL      0.128080
     47 H19        -7.1780    2.0660    1.4250 h1        1 MOL      0.128080
     48 N5         -6.9310   -0.1580   -0.7720 n         1 MOL     -0.331329
     49 C16        -7.2630   -1.5540   -1.1640 c3        1 MOL      0.029421
     50 C17        -7.2630   -2.5000    0.0430 c         1 MOL      0.431684
     51 O10        -7.9130   -3.5390    0.0050 o         1 MOL     -0.555612
     52 C18        -6.2240   -2.0240   -2.2540 c3        1 MOL     -0.094042
     53 C19        -5.0170   -2.7160   -1.6470 c         1 MOL      0.189343
     54 N6         -4.9800   -3.9830   -1.8570 n         1 MOL     -0.541260
     55 O11        -4.1680   -2.1510   -0.9560 o         1 MOL     -0.309054
     56 H20        -5.9510    0.0840   -0.7510 hn        1 MOL      0.255904
     57 H21        -8.2550   -1.6400   -1.5990 h1        1 MOL      0.088591
     58 H22        -5.9210   -1.1600   -2.8230 hc        1 MOL      0.073606
     59 H23        -6.8310   -2.6520   -2.9140 hc        1 MOL      0.073606
     60 H24        -5.6530   -4.4780   -2.4250 hn        1 MOL      0.314025
     61 H25        -4.2590   -4.5810   -1.4740 hn        1 MOL      0.314025
     62 N7         -6.4380   -2.1270    1.0690 n         1 MOL     -0.048591
     63 C20        -6.2480   -2.8520    2.2910 c3        1 MOL     -0.116999
     64 C21        -4.9330   -3.7200    2.4690 c         1 MOL      0.477012
     65 O12        -4.7900   -4.6110    3.3090 o         1 MOL     -0.557968
     66 H26        -5.8980   -1.2890    0.9180 hn        1 MOL      0.089854
     67 H27        -7.0840   -3.4500    2.6480 h1        1 MOL      0.075760
     68 H28        -6.1230   -2.0640    3.0330 h1        1 MOL      0.075760
     69 N8         -3.9100   -3.3270    1.6480 n         1 MOL     -0.041674
     70 C22        -2.5210   -3.8080    1.8220 c3        1 MOL     -0.152270
     71 C23        -1.4590   -2.7530    1.5240 c         1 MOL      0.609573
     72 O13        -1.7160   -1.6730    0.9550 o         1 MOL     -0.550754
     73 C24        -2.1800   -4.9800    0.8740 c3        1 MOL      0.219912
     74 C25        -3.1200   -6.1440    1.0870 c3        1 MOL     -0.382932
     75 O14        -2.1680   -4.6580   -0.4970 oh        1 MOL     -0.596276
     76 H29        -4.1240   -2.5970    0.9790 hn        1 MOL     -0.007297
     77 H30        -2.4310   -4.1330    2.8600 h1        1 MOL      0.104304
     78 H31        -1.1850   -5.3420    1.1560 h1        1 MOL      0.069181
     79 H32        -2.3910   -5.4820   -0.9270 ho        1 MOL      0.393779
     80 H33        -2.8160   -7.0490    0.5640 hc        1 MOL      0.105173
     81 H34        -3.2720   -6.4150    2.1270 hc        1 MOL      0.105173
     82 H35        -4.1110   -5.8660    0.7140 hc        1 MOL      0.105173
     83 N9         -0.2330   -2.9890    1.8930 n         1 MOL     -0.381884
     84 C26         0.8910   -2.1010    1.7090 c3        1 MOL     -0.330263
     85 C27         1.9410   -2.7950    0.8100 c         1 MOL      0.680414
     86 O15         2.3020   -3.9700    0.9230 o         1 MOL     -0.599911
     87 C28         1.5440   -1.4650    2.9700 c3        1 MOL      0.495361
     88 C29         2.1270   -2.5520    3.8910 c3        1 MOL     -0.026819
     89 C30         0.6340   -0.3900    3.5310 c3        1 MOL     -0.080269
     90 C31         3.0990   -1.9630    4.9600 c3        1 MOL     -0.273584
     91 H36        -0.0190   -3.9140    2.2320 hn        1 MOL      0.218481
     92 H37         0.5500   -1.2330    1.1570 h1        1 MOL      0.036061
     93 H38         2.3680   -0.8580    2.6210 hc        1 MOL     -0.195342
     94 H39         2.6780   -3.2400    3.2510 hc        1 MOL      0.001123
     95 H40         1.3130   -2.9850    4.4760 hc        1 MOL      0.001123
     96 H41         1.2800    0.2710    4.0980 hc        1 MOL      0.011742
     97 H42         0.1230    0.2070    2.7850 hc        1 MOL      0.011742
     98 H43        -0.0010   -0.8810    4.2680 hc        1 MOL      0.011742
     99 H44         2.6120   -1.1110    5.4430 hc        1 MOL      0.064726
    100 H45         3.3830   -2.6920    5.7180 hc        1 MOL      0.064726
    101 H46         3.9550   -1.7970    4.3120 hc        1 MOL      0.064726
    102 N10         2.3220   -1.9650   -0.1540 n         1 MOL     -0.277304
    103 C32         3.3350   -2.1460   -1.2170 c3        1 MOL      0.016334
    104 C33         4.5890   -1.4170   -0.6920 c         1 MOL      0.375143
    105 O16         4.5390   -0.4780    0.0450 o         1 MOL     -0.263284
    106 C34         2.7480   -1.6910   -2.5480 c3        1 MOL     -0.108498
    107 C35         3.5420   -1.8500   -3.8300 c         1 MOL      0.744909
    108 O17         4.0480   -2.9370   -4.0590 o         1 MOL     -0.727737
    109 O18         3.4540   -0.9940   -4.7070 o         1 MOL     -0.727737
    110 H47         1.7940   -1.1130   -0.2410 hn        1 MOL      0.198715
    111 H48         3.5830   -3.1990   -1.3830 h1        1 MOL      0.033226
    112 H49         2.5530   -0.6240   -2.4080 hc        1 MOL      0.022943
    113 H50         1.7670   -2.1480   -2.7200 hc        1 MOL      0.022943
    114 N11         5.8000   -1.7000   -1.2350 n         1 MOL     -0.538982
    115 C36         7.0630   -1.2170   -0.7140 c3        1 MOL      0.333795
    116 C37         7.1570    0.2780   -0.5350 c         1 MOL      0.416092
    117 O19         7.6920    0.6730    0.5330 o         1 MOL     -0.519247
    118 C38         8.1750   -1.7000   -1.6240 c3        1 MOL     -0.279231
    119 C39         9.5540   -1.4640   -1.0020 ca        1 MOL      0.047104
    120 C40         9.7980   -1.8950    0.3300 ca        1 MOL     -0.108320
    121 C41        10.5320   -0.8210   -1.7170 ca        1 MOL     -0.108320
    122 C42        11.0230   -1.5670    0.9390 ca        1 MOL     -0.162210
    123 C43        11.7740   -0.6270   -1.1580 ca        1 MOL     -0.162210
    124 C44        12.0180   -0.9100    0.2220 ca        1 MOL     -0.065311
    125 H51         5.8350   -2.2720   -2.0700 hn        1 MOL      0.262505
    126 H52         7.1950   -1.6900    0.2650 h1        1 MOL      0.060780
    127 H53         8.1120   -1.2690   -2.6250 hc        1 MOL      0.100625
    128 H54         8.0980   -2.7550   -1.8780 hc        1 MOL      0.100625
    129 H55         9.0970   -2.4710    0.9290 ha        1 MOL      0.103290
    130 H56        10.3380   -0.5120   -2.7280 ha        1 MOL      0.103290
    131 H57        11.2120   -1.8070    1.9730 ha        1 MOL      0.113016
    132 H58        12.5520   -0.1580   -1.7520 ha        1 MOL      0.113016
    133 H59        12.9680   -0.7330    0.6960 ha        1 MOL      0.087442
    134 N12         6.5010    1.1170   -1.3720 n         1 MOL     -0.131197
    135 C45         6.4100    2.5790   -1.1280 c3        1 MOL     -0.021321
    136 C46         5.4810    3.0370    0.0240 c         1 MOL      0.286056
    137 O20         5.7990    4.0260    0.7700 o         1 MOL     -0.499222
    138 C47         6.0350    3.2150   -2.5360 c3        1 MOL      0.041758
    139 C48         6.3880    2.1450   -3.5490 c3        1 MOL     -0.126818
    140 C49         6.0500    0.9070   -2.7290 c3        1 MOL      0.009381
    141 H60         7.4130    2.9370   -0.9320 h1        1 MOL      0.068423
    142 H61         4.9740    3.4650   -2.5290 hc        1 MOL      0.022390
    143 H62         6.5430    4.1520   -2.7640 hc        1 MOL      0.022390
    144 H63         5.7320    2.2980   -4.3990 hc        1 MOL      0.048890
    145 H64         7.4220    2.1470   -3.8870 hc        1 MOL      0.048890
    146 H65         4.9670    0.8410   -2.8210 h1        1 MOL      0.038815
    147 H66         6.4410   -0.0280   -3.1410 h1        1 MOL      0.038815
    148 N13         4.4580    2.1950    0.2770 n         1 MOL     -0.214802
    149 C50         3.6040    2.3730    1.4630 c3        1 MOL     -0.015593
    150 C51         4.1040    1.7680    2.7710 c         1 MOL      0.445712
    151 O21         3.8920    2.2620    3.8670 o         1 MOL     -0.547937
    152 C52         2.2190    1.6770    1.1720 c3        1 MOL      0.311248
    153 C53         1.6270    2.0690   -0.2500 c3        1 MOL     -0.190291
    154 C54         0.3800    1.3490   -0.6780 c         1 MOL      0.681070
    155 O22         0.4430    0.0870   -0.7090 o         1 MOL     -0.617361
    156 O23        -0.7050    1.9030   -1.0220 o         1 MOL     -0.617361
    157 H67         4.3260    1.3600   -0.2740 hn        1 MOL      0.216514
    158 H68         3.4410    3.4260    1.7000 h1        1 MOL      0.084957
    159 H69         1.5880    1.8620    2.0380 hc        1 MOL     -0.042847
    160 H70         2.4900    0.6190    1.1530 hc        1 MOL     -0.042847
    161 H71         2.3390    1.8680   -1.0440 hc        1 MOL      0.019711
    162 H72         1.6520    3.1650   -0.3010 hc        1 MOL      0.019711
    163 N14         4.9620    0.7290    2.6630 n         1 MOL     -0.047458
    164 C55         5.7680    0.1850    3.7580 c3        1 MOL     -0.156766
    165 H73         5.1750   -0.5340    4.3230 h1        1 MOL      0.065425
    166 H74         6.6490   -0.3130    3.3500 h1        1 MOL      0.065425
    167 H75         6.0810    0.9950    4.4170 h1        1 MOL      0.065425
    168 H76         5.0930    0.3440    1.7360 hn        1 MOL      0.024559
    169 Ca1        -2.0170   -0.3920   -1.4460 Ca        1 MOL      1.696497
    170 O24        -3.0930   -1.5800   -3.7350 oh        1 MOL     -0.863961
    171 H77        -3.3820   -0.7330   -4.0680 ho        1 MOL      0.412800
    172 H78        -3.4380   -2.2200   -4.3580 ho        1 MOL      0.412800
    173 O25        -0.6700    0.1010   -3.7710 oh        1 MOL     -0.863961
    174 H79        -0.7100   -0.4600   -4.5550 ho        1 MOL      0.412800
    175 H80         0.2100    0.4910   -3.7980 ho        1 MOL      0.412800
    176 O26        -0.6040   -2.7280   -1.6020 oh        1 MOL     -0.863961
    177 H81        -0.2040   -3.0510   -2.4100 ho        1 MOL      0.412800
    178 H82        -0.9100   -3.5110   -1.1550 ho        1 MOL      0.412800
@<TRIPOS>BOND
     1    1    2 1   
     2    1    4 1   
     3    1    5 1   
     4    1    6 1   
     5    2    3 2   
     6    2    7 1   
     7    7    8 1   
     8    7   15 1   
     9    8    9 1   
    10    8   11 1   
    11    8   16 1   
    12    9   10 2   
    13    9   19 1   
    14   11   12 1   
    15   11   17 1   
    16   11   18 1   
    17   12   13 1   
    18   12   14 1   
    19   19   20 1   
    20   19   24 1   
    21   20   21 1   
    22   20   23 1   
    23   20   25 1   
    24   21   22 2   
    25   21   29 1   
    26   23   26 1   
    27   23   27 1   
    28   23   28 1   
    29   29   30 1   
    30   29   37 1   
    31   30   31 1   
    32   30   33 1   
    33   30   38 1   
    34   31   32 2   
    35   31   41 1   
    36   33   34 1   
    37   33   39 1   
    38   33   40 1   
    39   34   35 1   
    40   34   36 1   
    41   41   42 1   
    42   41   45 1   
    43   42   43 1   
    44   42   46 1   
    45   42   47 1   
    46   43   44 2   
    47   43   48 1   
    48   48   49 1   
    49   48   56 1   
    50   49   50 1   
    51   49   52 1   
    52   49   57 1   
    53   50   51 2   
    54   50   62 1   
    55   52   53 1   
    56   52   58 1   
    57   52   59 1   
    58   53   54 1   
    59   53   55 2   
    60   54   60 1   
    61   54   61 1   
    62   62   63 1   
    63   62   66 1   
    64   63   64 1   
    65   63   67 1   
    66   63   68 1   
    67   64   65 2   
    68   64   69 1   
    69   69   70 1   
    70   69   76 1   
    71   70   71 1   
    72   70   73 1   
    73   70   77 1   
    74   71   72 2   
    75   71   83 1   
    76   73   74 1   
    77   73   75 1   
    78   73   78 1   
    79   74   80 1   
    80   74   81 1   
    81   74   82 1   
    82   75   79 1   
    83   83   84 1   
    84   83   91 1   
    85   84   85 1   
    86   84   87 1   
    87   84   92 1   
    88   85   86 2   
    89   85  102 1   
    90   87   88 1   
    91   87   89 1   
    92   87   93 1   
    93   88   90 1   
    94   88   94 1   
    95   88   95 1   
    96   89   96 1   
    97   89   97 1   
    98   89   98 1   
    99   90   99 1   
   100   90  100 1   
   101   90  101 1   
   102  102  103 1   
   103  102  110 1   
   104  103  104 1   
   105  103  106 1   
   106  103  111 1   
   107  104  105 2   
   108  104  114 1   
   109  106  107 1   
   110  106  112 1   
   111  106  113 1   
   112  107  108 1   
   113  107  109 1   
   114  114  115 1   
   115  114  125 1   
   116  115  116 1   
   117  115  118 1   
   118  115  126 1   
   119  116  117 2   
   120  116  134 1   
   121  118  119 1   
   122  118  127 1   
   123  118  128 1   
   124  119  120 ar  
   125  119  121 ar  
   126  120  122 ar  
   127  120  129 1   
   128  121  123 ar  
   129  121  130 1   
   130  122  124 ar  
   131  122  131 1   
   132  123  124 ar  
   133  123  132 1   
   134  124  133 1   
   135  134  135 1   
   136  134  140 1   
   137  135  136 1   
   138  135  138 1   
   139  135  141 1   
   140  136  137 2   
   141  136  148 1   
   142  138  139 1   
   143  138  142 1   
   144  138  143 1   
   145  139  140 1   
   146  139  144 1   
   147  139  145 1   
   148  140  146 1   
   149  140  147 1   
   150  148  149 1   
   151  148  157 1   
   152  149  150 1   
   153  149  152 1   
   154  149  158 1   
   155  150  151 2   
   156  150  163 1   
   157  152  153 1   
   158  152  159 1   
   159  152  160 1   
   160  153  154 1   
   161  153  161 1   
   162  153  162 1   
   163  154  155 1   
   164  154  156 1   
   165  163  164 1   
   166  163  168 1   
   167  164  165 1   
   168  164  166 1   
   169  164  167 1   
   170  170  171 1   
   171  170  172 1   
   172  173  174 1   
   173  173  175 1   
   174  176  177 1   
   175  176  178 1   
@<TRIPOS>SUBSTRUCTURE
     1 MOL         1 TEMP              0 ****  ****    0 ROOT
