@<TRIPOS>MOLECULE
MOL
  182   178     1     0     0
SMALL
resp


@<TRIPOS>ATOM
      1 C1          2.3270    1.6020    4.9790 c3        1 MOL     -0.258530
      2 C2          1.5060    1.3440    3.7480 c         1 MOL      0.708188
      3 O1          1.9920    0.7030    2.8050 o         1 MOL     -0.562565
      4 H1          1.7770    1.2670    5.8590 hc        1 MOL      0.070316
      5 H2          3.2680    1.0560    4.9100 hc        1 MOL      0.070316
      6 H3          2.5320    2.6700    5.0630 hc        1 MOL      0.070316
      7 N1          0.2710    1.8640    3.7350 n         1 MOL     -0.737014
      8 C3         -0.6490    1.8220    2.5490 c3        1 MOL      0.348366
      9 C4         -0.8740    3.2770    1.9750 c         1 MOL      0.462957
     10 O2         -1.9400    3.8330    2.0800 o         1 MOL     -0.457738
     11 C5         -1.9180    1.0930    2.8550 c3        1 MOL     -0.106932
     12 C6         -2.9170    1.1070    1.6780 c         1 MOL      0.494329
     13 O3         -2.4680    1.2440    0.5150 o         1 MOL     -0.608788
     14 O4         -4.0900    0.8170    1.9500 o         1 MOL     -0.608788
     15 H4         -0.0060    2.3860    4.5530 hn        1 MOL      0.346009
     16 H5         -0.1730    1.1850    1.8150 h1        1 MOL      0.026959
     17 H6         -2.3530    1.5380    3.7460 hc        1 MOL      0.029574
     18 H7         -1.5800    0.1120    3.1940 hc        1 MOL      0.029574
     19 N2          0.2570    3.7790    1.3850 n         1 MOL     -0.388740
     20 C7          0.4900    5.1710    1.0300 c3        1 MOL     -0.093773
     21 C8         -0.5920    5.7820    0.0240 c         1 MOL      0.609108
     22 O5         -0.7550    6.9780   -0.1010 o         1 MOL     -0.609863
     23 C9          1.9970    5.3120    0.5410 c3        1 MOL      0.019414
     24 C10         2.4190    6.6630   -0.0520 c3        1 MOL     -0.233293
     25 C11         2.3270    7.8340    0.9380 c3        1 MOL     -0.013157
     26 C12         2.5050    9.1030    0.0900 c3        1 MOL      0.036193
     27 N3          2.4340   10.3710    0.8930 n4        1 MOL     -0.310070
     28 H8          0.9930    3.0860    1.3550 hn        1 MOL      0.240371
     29 H9          0.3410    5.7850    1.9230 h1        1 MOL      0.095493
     30 H10         2.3200    4.5820   -0.2020 hc        1 MOL      0.065510
     31 H11         2.7350    5.2220    1.3400 hc        1 MOL      0.065510
     32 H12         1.7540    6.8280   -0.8990 hc        1 MOL      0.086997
     33 H13         3.4810    6.6090   -0.2970 hc        1 MOL      0.086997
     34 H14         2.9800    7.6930    1.7990 hc        1 MOL      0.033063
     35 H15         1.3490    7.8880    1.4250 hc        1 MOL      0.033063
     36 H16         1.7790    9.1190   -0.7170 hx        1 MOL      0.084705
     37 H17         3.5060    9.0380   -0.3450 hx        1 MOL      0.084705
     38 H18         1.4540   10.5300    1.1100 hn        1 MOL      0.313157
     39 H19         2.9360   10.3200    1.7660 hn        1 MOL      0.313157
     40 H20         2.6470   11.2050    0.3690 hn        1 MOL      0.313157
     41 N4         -1.3900    5.0040   -0.6520 n         1 MOL     -0.390076
     42 C13        -2.5200    5.3510   -1.4700 c3        1 MOL      0.242773
     43 C14        -3.8600    4.9180   -0.8960 c         1 MOL      0.277937
     44 O6         -4.8650    5.4270   -1.3620 o         1 MOL     -0.524273
     45 C15        -2.3450    4.7990   -2.9050 c3        1 MOL     -0.302372
     46 C16        -2.3580    3.3390   -2.9780 c         1 MOL      0.858050
     47 O7         -1.7620    2.6550   -2.1510 o         1 MOL     -0.709446
     48 O8         -2.8430    2.8260   -4.0060 o         1 MOL     -0.709446
     49 H21        -1.2420    4.0140   -0.5370 hn        1 MOL      0.280567
     50 H22        -2.5580    6.4150   -1.7050 h1        1 MOL      0.060450
     51 H23        -1.3670    5.1410   -3.2720 hc        1 MOL      0.069707
     52 H24        -3.1550    5.2010   -3.5130 hc        1 MOL      0.069707
     53 N5         -3.9520    4.1130    0.1350 n         1 MOL      0.045595
     54 C17        -5.1250    3.7600    0.8520 c3        1 MOL     -0.121392
     55 C18        -6.0280    2.7090    0.2170 c         1 MOL      0.439234
     56 O9         -7.2570    2.8480    0.3400 o         1 MOL     -0.566788
     57 H25        -3.0980    3.6630    0.4230 hn        1 MOL     -0.115095
     58 H26        -5.7470    4.6270    1.0900 h1        1 MOL      0.107124
     59 H27        -4.7960    3.4960    1.8620 h1        1 MOL      0.107124
     60 N6         -5.5370    1.6630   -0.4810 n         1 MOL     -0.102245
     61 C19        -6.3880    0.6620   -1.1460 c3        1 MOL     -0.098662
     62 C20        -6.6470   -0.5650   -0.3530 c         1 MOL      0.311063
     63 O10        -7.1490   -1.5720   -0.8550 o         1 MOL     -0.478047
     64 C21        -5.6040    0.3670   -2.4790 c3        1 MOL      0.090674
     65 C22        -4.4890   -0.7320   -2.3150 c         1 MOL      0.146536
     66 N7         -4.6820   -1.8760   -2.9270 n         1 MOL     -0.570073
     67 O11        -3.7030   -0.6000   -1.4000 o         1 MOL     -0.373180
     68 H28        -4.5390    1.5120   -0.3620 hn        1 MOL      0.100284
     69 H29        -7.3260    1.1280   -1.4340 h1        1 MOL      0.147394
     70 H30        -5.0830    1.2790   -2.7790 hc        1 MOL      0.011536
     71 H31        -6.3240    0.0590   -3.2420 hc        1 MOL      0.011536
     72 H32        -5.5040   -2.1110   -3.4690 hn        1 MOL      0.340559
     73 H33        -3.8550   -2.4380   -3.0280 hn        1 MOL      0.340559
     74 N8         -6.2280   -0.5980    0.8720 n         1 MOL     -0.092450
     75 C23        -6.3550   -1.7660    1.8630 c3        1 MOL     -0.458429
     76 C24        -5.1430   -2.7620    1.8660 c         1 MOL      0.626836
     77 O12        -5.2360   -3.6950    2.6360 o         1 MOL     -0.556861
     78 H34        -5.7100    0.1840    1.2590 hn        1 MOL      0.243499
     79 H35        -7.1640   -2.4270    1.5620 h1        1 MOL      0.188177
     80 H36        -6.5360   -1.3730    2.8580 h1        1 MOL      0.188177
     81 N9         -4.0990   -2.5100    1.0740 n         1 MOL     -0.130180
     82 C25        -2.9470   -3.4380    1.1550 c3        1 MOL     -0.175046
     83 C26        -1.5410   -2.7530    1.2210 c         1 MOL      0.556947
     84 O13        -1.3480   -1.7210    0.5470 o         1 MOL     -0.614819
     85 C27        -3.0510   -4.2250   -0.1550 c3        1 MOL      0.519455
     86 C28        -4.0850   -5.2200   -0.2880 ca        1 MOL     -0.380335
     87 C29        -5.3740   -4.7360   -0.5500 ca        1 MOL      0.051873
     88 C30        -3.8610   -6.5940   -0.0550 ca        1 MOL      0.051873
     89 C31        -6.5010   -5.5990   -0.4870 ca        1 MOL     -0.407689
     90 C32        -4.9320   -7.4880   -0.1600 ca        1 MOL     -0.407689
     91 C33        -6.2880   -6.9390   -0.2400 ca        1 MOL      0.482404
     92 O14        -7.3530   -7.7820   -0.1590 oh        1 MOL     -0.472454
     93 H37        -4.0390   -1.6230    0.6080 hn        1 MOL      0.144553
     94 H38        -3.0640   -4.0540    2.0460 h1        1 MOL      0.064878
     95 H39        -2.0770   -4.6970   -0.3230 hc        1 MOL     -0.091230
     96 H40        -3.1830   -3.6140   -1.0460 hc        1 MOL     -0.091230
     97 H41        -5.5250   -3.6940   -0.8100 ha        1 MOL      0.074466
     98 H42        -2.8930   -7.0070    0.2040 ha        1 MOL      0.074466
     99 H43        -7.4800   -5.2030   -0.7260 ha        1 MOL      0.173169
    100 H44        -4.8600   -8.5520    0.0120 ha        1 MOL      0.173169
    101 H45        -6.9550   -8.6480   -0.0800 ho        1 MOL      0.322225
    102 N10        -0.5510   -3.3960    1.7840 n         1 MOL     -0.402020
    103 C34         0.8570   -2.9760    1.6930 c3        1 MOL     -0.008929
    104 C35         1.7220   -3.7800    0.6140 c         1 MOL      0.538072
    105 O15         1.4770   -4.9440    0.4870 o         1 MOL     -0.568069
    106 C36         1.5340   -3.2190    3.1200 c3        1 MOL      0.162982
    107 C37         0.8480   -2.4140    4.2710 c3        1 MOL      0.222478
    108 C38         3.0360   -2.7590    3.1420 c3        1 MOL     -0.544289
    109 C39         1.1310   -3.0250    5.6300 c3        1 MOL     -0.266772
    110 H46        -0.8100   -4.2220    2.2910 hn        1 MOL      0.276621
    111 H47         0.8950   -1.9290    1.4220 h1        1 MOL      0.073060
    112 H48         1.4150   -4.2900    3.2480 hc        1 MOL      0.002743
    113 H49        -0.2340   -2.4820    4.1310 hc        1 MOL     -0.037364
    114 H50         1.0070   -1.3410    4.2950 hc        1 MOL     -0.037364
    115 H51         3.5060   -2.8480    4.1150 hc        1 MOL      0.123900
    116 H52         3.5470   -3.2250    2.3020 hc        1 MOL      0.123900
    117 H53         3.0450   -1.6780    2.9950 hc        1 MOL      0.123900
    118 H54         2.2060   -2.9610    5.8440 hc        1 MOL      0.054154
    119 H55         0.5620   -2.5200    6.4140 hc        1 MOL      0.054154
    120 H56         0.9250   -4.0970    5.6440 hc        1 MOL      0.054154
    121 N11         2.6160   -3.1690   -0.1050 n         1 MOL     -0.206780
    122 C40         3.5340   -3.8360   -1.1190 c3        1 MOL     -0.026181
    123 C41         5.0170   -3.7400   -0.6200 c         1 MOL      0.461260
    124 O16         5.2390   -2.9270    0.3210 o         1 MOL     -0.417442
    125 C42         3.4400   -3.0870   -2.4630 c3        1 MOL     -0.089718
    126 O17         3.5770   -1.6770   -2.3410 oh        1 MOL     -0.458590
    127 H57         2.6860   -2.1580   -0.0400 hn        1 MOL      0.257422
    128 H58         3.2480   -4.8880   -1.2000 h1        1 MOL      0.083155
    129 H59         2.5250   -3.2530   -3.0130 h1        1 MOL      0.091983
    130 H60         4.2850   -3.4180   -3.0670 h1        1 MOL      0.091983
    131 H61         2.7590   -1.3250   -1.9760 ho        1 MOL      0.341766
    132 N12         6.0370   -4.4410   -1.2230 n         1 MOL     -0.515377
    133 C43         7.4690   -4.2210   -0.8530 c3        1 MOL      0.140089
    134 C44         7.9250   -2.8080   -1.3350 c         1 MOL      0.560698
    135 O18         8.8550   -2.2350   -0.7580 o         1 MOL     -0.511161
    136 C45         8.3450   -5.3440   -1.4610 c3        1 MOL     -0.402576
    137 H62         5.7700   -5.1750   -1.8600 hn        1 MOL      0.327479
    138 H63         7.6250   -4.2850    0.2220 h1        1 MOL      0.094582
    139 H64         9.3410   -5.0820   -1.0870 hc        1 MOL      0.121834
    140 H65         7.9070   -6.2930   -1.1700 hc        1 MOL      0.121834
    141 H66         8.1860   -5.3610   -2.5360 hc        1 MOL      0.121834
    142 N13         7.3240   -2.2500   -2.3820 n         1 MOL     -0.603025
    143 C46         7.6370   -0.8660   -2.7820 c3        1 MOL      0.375420
    144 C47         7.2250    0.0800   -1.6390 c         1 MOL      0.251156
    145 O19         8.1180    0.9280   -1.3340 o         1 MOL     -0.493257
    146 C48         6.9400   -0.5320   -4.1100 c3        1 MOL     -0.426808
    147 H67         6.4580   -2.6100   -2.7730 hn        1 MOL      0.324668
    148 H68         8.7080   -0.6980   -2.8610 h1        1 MOL      0.046380
    149 H69         5.8950   -0.8270   -4.1870 hc        1 MOL      0.109976
    150 H70         7.0520    0.5440   -4.1880 hc        1 MOL      0.109976
    151 H71         7.4580   -1.0390   -4.9310 hc        1 MOL      0.109976
    152 N14         6.0030   -0.0160   -1.0250 n         1 MOL      0.031045
    153 C49         5.6110    0.8740    0.0990 c3        1 MOL     -0.128632
    154 C50         6.5360    0.6720    1.3080 c         1 MOL      0.444718
    155 O20         6.9180    1.6560    1.8890 o         1 MOL     -0.519734
    156 C51         4.0910    0.8000    0.3300 c3        1 MOL      0.008240
    157 C52         3.1900    1.2770   -0.8190 c3        1 MOL      0.003000
    158 C53         1.7110    0.9180   -0.6230 c         1 MOL      0.994903
    159 O21         0.7670    1.7350   -0.3820 o         1 MOL     -0.876144
    160 O22         1.4570   -0.2680   -0.9420 o         1 MOL     -0.876144
    161 H72         5.3620   -0.6740   -1.4280 hn        1 MOL     -0.003495
    162 H73         5.8220    1.8450   -0.3580 h1        1 MOL      0.089533
    163 H74         3.8070    1.3980    1.2000 hc        1 MOL      0.002853
    164 H75         3.8060   -0.2340    0.5460 hc        1 MOL      0.002853
    165 H76         3.5980    0.9650   -1.7790 hc        1 MOL     -0.030437
    166 H77         3.2150    2.3640   -0.8020 hc        1 MOL     -0.030437
    167 N15         6.8560   -0.6250    1.6060 n         1 MOL     -0.119075
    168 C54         7.8880   -0.8710    2.5910 c3        1 MOL     -0.153867
    169 H78         7.4260   -1.1130    3.5480 h1        1 MOL      0.072360
    170 H79         8.5080   -1.7070    2.2670 h1        1 MOL      0.072360
    171 H80         8.5070    0.0190    2.7000 h1        1 MOL      0.072360
    172 H81         6.4160   -1.4160    1.1510 hn        1 MOL      0.141721
    173 Ca1        -1.1930    0.1760   -1.4230 Ca        1 MOL      1.744858
    174 O23        -2.4560    0.3300   -4.0840 oh        1 MOL     -0.810492
    175 H82        -3.0480   -0.0170   -4.7450 ho        1 MOL      0.391242
    176 H83        -2.6740    1.2620   -4.0340 ho        1 MOL      0.391242
    177 O24        -1.3970   -2.2130   -2.7200 oh        1 MOL     -0.810492
    178 H84        -1.2490   -3.1500   -2.5810 ho        1 MOL      0.391242
    179 H85        -1.6510   -2.1520   -3.6470 ho        1 MOL      0.391242
    180 O25         0.2860    0.7210   -3.6790 oh        1 MOL     -0.810492
    181 H86        -0.0530    0.3660   -4.5060 ho        1 MOL      0.391242
    182 H87         1.2240    0.8280   -3.8380 ho        1 MOL      0.391242
@<TRIPOS>BOND
     1    1    2 1   
     2    1    4 1   
     3    1    5 1   
     4    1    6 1   
     5    2    3 2   
     6    2    7 1   
     7    7    8 1   
     8    7   15 1   
     9    8    9 1   
    10    8   11 1   
    11    8   16 1   
    12    9   10 2   
    13    9   19 1   
    14   11   12 1   
    15   11   17 1   
    16   11   18 1   
    17   12   13 1   
    18   12   14 1   
    19   19   20 1   
    20   19   28 1   
    21   20   21 1   
    22   20   23 1   
    23   20   29 1   
    24   21   22 2   
    25   21   41 1   
    26   23   24 1   
    27   23   30 1   
    28   23   31 1   
    29   24   25 1   
    30   24   32 1   
    31   24   33 1   
    32   25   26 1   
    33   25   34 1   
    34   25   35 1   
    35   26   27 1   
    36   26   36 1   
    37   26   37 1   
    38   27   38 1   
    39   27   39 1   
    40   27   40 1   
    41   41   42 1   
    42   41   49 1   
    43   42   43 1   
    44   42   45 1   
    45   42   50 1   
    46   43   44 2   
    47   43   53 1   
    48   45   46 1   
    49   45   51 1   
    50   45   52 1   
    51   46   47 1   
    52   46   48 1   
    53   53   54 1   
    54   53   57 1   
    55   54   55 1   
    56   54   58 1   
    57   54   59 1   
    58   55   56 2   
    59   55   60 1   
    60   60   61 1   
    61   60   68 1   
    62   61   62 1   
    63   61   64 1   
    64   61   69 1   
    65   62   63 2   
    66   62   74 1   
    67   64   65 1   
    68   64   70 1   
    69   64   71 1   
    70   65   66 1   
    71   65   67 2   
    72   66   72 1   
    73   66   73 1   
    74   74   75 1   
    75   74   78 1   
    76   75   76 1   
    77   75   79 1   
    78   75   80 1   
    79   76   77 2   
    80   76   81 1   
    81   81   82 1   
    82   81   93 1   
    83   82   83 1   
    84   82   85 1   
    85   82   94 1   
    86   83   84 2   
    87   83  102 1   
    88   85   86 1   
    89   85   95 1   
    90   85   96 1   
    91   86   87 ar  
    92   86   88 ar  
    93   87   89 ar  
    94   87   97 1   
    95   88   90 ar  
    96   88   98 1   
    97   89   91 ar  
    98   89   99 1   
    99   90   91 ar  
   100   90  100 1   
   101   91   92 1   
   102   92  101 1   
   103  102  103 1   
   104  102  110 1   
   105  103  104 1   
   106  103  106 1   
   107  103  111 1   
   108  104  105 2   
   109  104  121 1   
   110  106  107 1   
   111  106  108 1   
   112  106  112 1   
   113  107  109 1   
   114  107  113 1   
   115  107  114 1   
   116  108  115 1   
   117  108  116 1   
   118  108  117 1   
   119  109  118 1   
   120  109  119 1   
   121  109  120 1   
   122  121  122 1   
   123  121  127 1   
   124  122  123 1   
   125  122  125 1   
   126  122  128 1   
   127  123  124 2   
   128  123  132 1   
   129  125  126 1   
   130  125  129 1   
   131  125  130 1   
   132  126  131 1   
   133  132  133 1   
   134  132  137 1   
   135  133  134 1   
   136  133  136 1   
   137  133  138 1   
   138  134  135 2   
   139  134  142 1   
   140  136  139 1   
   141  136  140 1   
   142  136  141 1   
   143  142  143 1   
   144  142  147 1   
   145  143  144 1   
   146  143  146 1   
   147  143  148 1   
   148  144  145 2   
   149  144  152 1   
   150  146  149 1   
   151  146  150 1   
   152  146  151 1   
   153  152  153 1   
   154  152  161 1   
   155  153  154 1   
   156  153  156 1   
   157  153  162 1   
   158  154  155 2   
   159  154  167 1   
   160  156  157 1   
   161  156  163 1   
   162  156  164 1   
   163  157  158 1   
   164  157  165 1   
   165  157  166 1   
   166  158  159 1   
   167  158  160 1   
   168  167  168 1   
   169  167  172 1   
   170  168  169 1   
   171  168  170 1   
   172  168  171 1   
   173  174  175 1   
   174  174  176 1   
   175  177  178 1   
   176  177  179 1   
   177  180  181 1   
   178  180  182 1   
@<TRIPOS>SUBSTRUCTURE
     1 MOL         1 TEMP              0 ****  ****    0 ROOT
