@<TRIPOS>MOLECULE
MOL
  189   185     1     0     0
SMALL
resp


@<TRIPOS>ATOM
      1 C1          0.1590   -4.3700    5.7130 c3        1 MOL     -0.477100
      2 C2          0.5860   -3.7800    4.3760 c         1 MOL      0.673027
      3 O1          0.8340   -2.5880    4.3030 o         1 MOL     -0.570783
      4 H1         -0.9180   -4.2510    5.8340 hc        1 MOL      0.123168
      5 H2          0.4120   -5.4290    5.7420 hc        1 MOL      0.123168
      6 H3          0.6750   -3.8500    6.5210 hc        1 MOL      0.123168
      7 N1          1.0090   -4.6340    3.4910 n         1 MOL     -0.518852
      8 C3          1.7230   -4.3250    2.2330 c3        1 MOL      0.325090
      9 C4          1.3490   -5.2870    1.1020 c         1 MOL      0.417607
     10 O2          1.3060   -6.4670    1.3360 o         1 MOL     -0.581411
     11 C5          3.2710   -4.2280    2.3640 c3        1 MOL     -0.271174
     12 C6          3.9380   -3.1960    1.4970 c         1 MOL      0.808442
     13 O3          5.1530   -2.9060    1.7530 o         1 MOL     -0.720502
     14 O4          3.3930   -2.5860    0.5120 o         1 MOL     -0.720502
     15 H4          0.8200   -5.6170    3.6190 hn        1 MOL      0.269342
     16 H5          1.3310   -3.3650    1.9000 h1        1 MOL      0.080586
     17 H6          3.6850   -5.2080    2.1490 hc        1 MOL      0.060873
     18 H7          3.5260   -4.0410    3.4080 hc        1 MOL      0.060873
     19 N2          1.0700   -4.8030   -0.1020 n         1 MOL     -0.116543
     20 C7          0.6920   -5.6180   -1.2770 c3        1 MOL     -0.183750
     21 C8          1.6860   -5.3130   -2.5080 c         1 MOL      0.664826
     22 O5          1.9590   -6.2010   -3.3280 o         1 MOL     -0.611564
     23 C9         -0.7890   -5.4110   -1.7060 c3        1 MOL      0.291679
     24 C10        -1.7240   -5.3090   -0.4580 c3        1 MOL     -0.214393
     25 C11        -1.1690   -6.5700   -2.6630 c3        1 MOL     -0.207807
     26 C12        -3.1850   -4.9800   -0.6770 c3        1 MOL     -0.016701
     27 H8          1.0570   -3.8100   -0.2830 hn        1 MOL     -0.085923
     28 H9          0.8470   -6.6910   -1.1640 h1        1 MOL      0.095805
     29 H10        -0.8310   -4.5160   -2.3220 hc        1 MOL     -0.007767
     30 H11        -1.3650   -4.6880    0.3570 hc        1 MOL      0.048095
     31 H12        -1.8820   -6.3200   -0.0690 hc        1 MOL      0.048095
     32 H13        -1.1130   -7.4890   -2.0840 hc        1 MOL      0.035758
     33 H14        -2.2040   -6.4700   -2.9930 hc        1 MOL      0.035758
     34 H15        -0.5210   -6.6070   -3.5410 hc        1 MOL      0.035758
     35 H16        -3.5750   -5.7060   -1.3960 hc        1 MOL      0.021597
     36 H17        -3.6920   -5.0160    0.2830 hc        1 MOL      0.021597
     37 H18        -3.3240   -3.9900   -1.1020 hc        1 MOL      0.021597
     38 N3          2.2890   -4.1420   -2.5610 n         1 MOL     -0.560743
     39 C13         3.2200   -3.6330   -3.6410 c3        1 MOL      0.173697
     40 C14         4.5730   -3.2120   -3.1790 c         1 MOL      0.409665
     41 O6          5.3350   -2.8920   -4.0860 o         1 MOL     -0.549961
     42 C15         2.4610   -2.5680   -4.3620 c3        1 MOL     -0.318136
     43 C16         2.1960   -1.3290   -3.4180 c         1 MOL      0.770389
     44 O7          2.5460   -1.2550   -2.2540 o         1 MOL     -0.709100
     45 O8          1.3850   -0.4700   -3.8110 o         1 MOL     -0.709100
     46 H19         1.9350   -3.4160   -1.9700 hn        1 MOL      0.406785
     47 H20         3.4120   -4.4830   -4.3100 h1        1 MOL      0.075793
     48 H21         1.5160   -2.9990   -4.6890 hc        1 MOL      0.080124
     49 H22         3.0010   -2.1760   -5.2320 hc        1 MOL      0.080124
     50 N4          4.9220   -3.2050   -1.8860 n         1 MOL     -0.220653
     51 C17         6.2290   -2.8220   -1.4000 c3        1 MOL     -0.304258
     52 C18         6.7850   -1.4740   -1.6440 c         1 MOL      0.602971
     53 O9          8.0180   -1.3730   -1.4050 o         1 MOL     -0.635855
     54 H23         4.2580   -3.4790   -1.1780 hn        1 MOL      0.171188
     55 H24         6.9550   -3.5160   -1.8170 h1        1 MOL      0.139974
     56 H25         6.2100   -2.9530   -0.3180 h1        1 MOL      0.139974
     57 N5          5.9810   -0.5170   -2.0710 n         1 MOL     -0.321660
     58 C19         6.5220    0.8180   -2.4510 c3        1 MOL     -0.024132
     59 C20         6.9510    1.8070   -1.3740 c         1 MOL      0.409617
     60 O10         7.6510    2.7650   -1.6150 o         1 MOL     -0.545348
     61 C21         5.4270    1.4510   -3.2610 c3        1 MOL     -0.178960
     62 C22         4.2150    1.8330   -2.4620 c         1 MOL      0.798268
     63 O11         3.9850    1.3720   -1.3500 o         1 MOL     -0.725669
     64 O12         3.4520    2.6650   -2.9840 o         1 MOL     -0.725669
     65 H26         5.0590   -0.8920   -2.2930 hn        1 MOL      0.257188
     66 H27         7.2660    0.7350   -3.2400 h1        1 MOL      0.104691
     67 H28         5.0380    0.7470   -3.9850 hc        1 MOL      0.046345
     68 H29         5.8920    2.2820   -3.8020 hc        1 MOL      0.046345
     69 N6          6.7180    1.5670   -0.0860 n         1 MOL     -0.093813
     70 C23         7.2100    2.2640    1.0720 c3        1 MOL     -0.126018
     71 C24         6.2800    3.4440    1.6290 c         1 MOL      0.536974
     72 O13         6.7440    4.3010    2.3680 o         1 MOL     -0.585681
     73 H30         6.3740    0.6310    0.0500 hn        1 MOL      0.220831
     74 H31         8.1810    2.7220    0.9120 h1        1 MOL      0.057296
     75 H32         7.3430    1.6310    1.9550 h1        1 MOL      0.057296
     76 N7          5.0500    3.3590    1.2070 n         1 MOL     -0.439472
     77 C25         3.9140    4.1670    1.6410 c3        1 MOL      0.301522
     78 C26         2.7820    3.1710    1.8910 c         1 MOL      0.322556
     79 O14         2.7340    2.0270    1.4390 o         1 MOL     -0.506117
     80 C27         3.6230    5.2040    0.5570 c3        1 MOL     -0.411324
     81 C28         4.8490    6.1280    0.3440 c3        1 MOL     -0.141262
     82 C29         4.5490    7.3250   -0.4700 c         1 MOL      0.624856
     83 N8          4.2020    7.1830   -1.7110 n         1 MOL     -0.716125
     84 O15         4.7850    8.4700   -0.1070 o         1 MOL     -0.596121
     85 H33         4.9060    2.6200    0.5270 hn        1 MOL      0.277618
     86 H34         4.2030    4.5640    2.6050 h1        1 MOL      0.012255
     87 H35         2.7100    5.7120    0.8610 hc        1 MOL      0.140421
     88 H36         3.3880    4.6300   -0.3520 hc        1 MOL      0.140421
     89 H37         5.6440    5.5540   -0.1390 hc        1 MOL      0.103115
     90 H38         5.1230    6.5630    1.3120 hc        1 MOL      0.103115
     91 H39         3.8650    6.3040   -2.0740 hn        1 MOL      0.335384
     92 H40         3.9630    8.0160   -2.2300 hn        1 MOL      0.335384
     93 N9          1.6490    3.6320    2.4500 n         1 MOL     -0.304755
     94 C30         0.4350    2.7780    2.6690 c3        1 MOL      0.056989
     95 C31        -0.8510    3.1860    1.9490 c         1 MOL      0.381307
     96 O16        -1.1940    4.3540    2.0550 o         1 MOL     -0.554992
     97 C32         0.0920    2.8330    4.1370 c3        1 MOL      0.259545
     98 C33        -1.0910    1.8950    4.5480 c3        1 MOL     -0.190187
     99 C34         1.2620    2.5850    5.1110 c3        1 MOL     -0.190187
    100 H41         1.6840    4.6360    2.6190 hn        1 MOL      0.214015
    101 H42         0.7000    1.7680    2.3630 h1        1 MOL      0.124339
    102 H43        -0.2690    3.8310    4.3980 hc        1 MOL     -0.033695
    103 H44        -2.0190    2.0080    3.9930 hc        1 MOL      0.025709
    104 H45        -0.7740    0.8810    4.2930 hc        1 MOL      0.025709
    105 H46        -1.3610    2.0170    5.5910 hc        1 MOL      0.025709
    106 H47         0.9230    2.6260    6.1520 hc        1 MOL      0.025709
    107 H48         1.6330    1.5930    4.8580 hc        1 MOL      0.025709
    108 H49         2.0560    3.3260    5.0720 hc        1 MOL      0.025709
    109 N10        -1.4940    2.3220    1.1130 n         1 MOL     -0.077906
    110 C35        -2.5310    2.5590    0.1560 c3        1 MOL      0.067400
    111 C36        -3.8920    2.4380    0.9630 c         1 MOL      0.205714
    112 O17        -3.9650    2.1060    2.1180 o         1 MOL     -0.373229
    113 C37        -2.3420    1.6460   -1.0590 c3        1 MOL     -0.638109
    114 C38        -3.3950    1.9840   -2.1000 c         1 MOL      0.791995
    115 N11        -3.4160    3.1850   -2.6240 n         1 MOL     -0.773400
    116 O18        -4.2660    1.2330   -2.4260 o         1 MOL     -0.541237
    117 H50        -1.1040    1.3910    1.0440 hn        1 MOL      0.044571
    118 H51        -2.4710    3.5910   -0.1760 h1        1 MOL      0.057291
    119 H52        -2.3320    0.5840   -0.8200 hc        1 MOL      0.245758
    120 H53        -1.3690    1.9210   -1.4620 hc        1 MOL      0.245758
    121 H54        -2.8200    3.8430   -2.1410 hn        1 MOL      0.350846
    122 H55        -4.1310    3.4200   -3.2920 hn        1 MOL      0.350846
    123 N12        -4.9380    2.7830    0.2640 n         1 MOL      0.011028
    124 C39        -6.3640    2.6690    0.5880 c3        1 MOL      0.073587
    125 C40        -6.9250    1.2020    0.5230 c         1 MOL      0.307416
    126 O19        -7.9740    0.9180    1.0950 o         1 MOL     -0.527418
    127 C41        -7.2390    3.6760   -0.2830 c3        1 MOL     -0.183125
    128 C42        -7.0430    3.5950   -1.7850 ca        1 MOL      0.141338
    129 C43        -7.7030    2.6050   -2.5900 ca        1 MOL     -0.207508
    130 C44        -6.2130    4.5140   -2.4670 ca        1 MOL     -0.207508
    131 C45        -7.5490    2.5670   -3.9180 ca        1 MOL     -0.317559
    132 C46        -6.0700    4.4870   -3.8650 ca        1 MOL     -0.317559
    133 C47        -6.7720    3.5060   -4.5990 ca        1 MOL      0.469976
    134 O20        -6.7140    3.4530   -5.9450 oh        1 MOL     -0.586639
    135 H56        -4.8120    3.1060   -0.6840 hn        1 MOL     -0.055509
    136 H57        -6.4890    2.8730    1.6480 h1        1 MOL      0.060496
    137 H58        -6.9390    4.6530    0.1020 hc        1 MOL      0.060464
    138 H59        -8.3030    3.5640   -0.0940 hc        1 MOL      0.060464
    139 H60        -8.4020    1.9170   -2.1400 ha        1 MOL      0.172190
    140 H61        -5.5480    5.1720   -1.9190 ha        1 MOL      0.172190
    141 H62        -8.0980    1.8360   -4.5060 ha        1 MOL      0.153351
    142 H63        -5.3910    5.1460   -4.3820 ha        1 MOL      0.153351
    143 H64        -7.4100    2.8830   -6.2800 ho        1 MOL      0.417375
    144 N13        -6.2170    0.3120   -0.1250 n         1 MOL      0.049209
    145 C48        -6.3020   -1.1700    0.0660 c3        1 MOL     -0.465702
    146 C49        -5.5850   -1.6950    1.2620 c         1 MOL      0.679902
    147 O21        -5.9310   -2.6730    1.8410 o         1 MOL     -0.556668
    148 C50        -5.7570   -1.9490   -1.0870 c3        1 MOL      0.373453
    149 C51        -6.4790   -1.7440   -2.4100 c3        1 MOL     -0.339537
    150 C52        -8.0100   -2.1850   -2.1670 c         1 MOL      0.652739
    151 O22        -8.2750   -3.3880   -1.9260 o         1 MOL     -0.699886
    152 O23        -8.8970   -1.2810   -2.1670 o         1 MOL     -0.699886
    153 H65        -5.4730    0.6520   -0.7190 hn        1 MOL      0.255697
    154 H66        -7.3380   -1.4240    0.2650 h1        1 MOL      0.221356
    155 H67        -5.7020   -3.0290   -0.9410 hc        1 MOL     -0.079618
    156 H68        -4.7810   -1.4830   -1.1320 hc        1 MOL     -0.079618
    157 H69        -6.0070   -2.2770   -3.2370 hc        1 MOL      0.050011
    158 H70        -6.5380   -0.6910   -2.6930 hc        1 MOL      0.050011
    159 N14        -4.5810   -0.9810    1.7640 n         1 MOL     -0.483580
    160 C53        -3.7470   -1.4770    2.8650 c3        1 MOL     -0.114087
    161 C54        -4.2050   -0.9870    4.1930 c         1 MOL      0.651734
    162 O24        -4.1250   -1.6970    5.0750 o         1 MOL     -0.582286
    163 C55        -2.2350   -1.0810    2.5040 c3        1 MOL      0.002683
    164 C56        -1.6670   -1.9190    1.3320 c3        1 MOL      0.051099
    165 C57        -0.4290   -1.2430    0.7350 c         1 MOL      0.551187
    166 O25         0.3640   -1.9080   -0.0190 o         1 MOL     -0.607894
    167 O26        -0.0810   -0.0770    0.9750 o         1 MOL     -0.607894
    168 H71        -4.3070   -0.1730    1.2180 hn        1 MOL      0.180255
    169 H72        -3.7810   -2.5670    2.9150 h1        1 MOL      0.101972
    170 H73        -1.6090   -1.3000    3.3630 hc        1 MOL      0.017138
    171 H74        -2.2120   -0.0140    2.2950 hc        1 MOL      0.017138
    172 H75        -2.3920   -1.9570    0.5190 hc        1 MOL      0.014714
    173 H76        -1.3160   -2.9050    1.6480 hc        1 MOL      0.014714
    174 N15        -4.6570    0.2310    4.3220 n         1 MOL     -0.188159
    175 C58        -4.9790    0.7570    5.6270 c3        1 MOL     -0.179526
    176 H77        -5.7720    0.1570    6.0740 h1        1 MOL      0.071641
    177 H78        -4.0950    0.7210    6.2630 h1        1 MOL      0.071641
    178 H79        -5.3160    1.7890    5.5300 h1        1 MOL      0.071641
    179 H80        -4.5570    0.8720    3.5430 hn        1 MOL      0.135567
    180 Ca1         2.4720   -0.2660    0.1560 Ca        1 MOL      1.690022
    181 O27         2.4170   -0.8290    2.8310 oh        1 MOL     -0.904495
    182 H81         1.9490   -1.4160    3.4290 ho        1 MOL      0.413470
    183 H82         3.0160   -0.3410    3.3910 ho        1 MOL      0.413470
    184 O28         1.1860    1.4430   -1.7540 oh        1 MOL     -0.904495
    185 H83         0.8820    1.0030   -2.5520 ho        1 MOL      0.413470
    186 H84         2.0440    1.7900   -1.9900 ho        1 MOL      0.413470
    187 O29         5.1370   -0.3280    1.4520 oh        1 MOL     -0.904495
    188 H85         5.2260    0.0030    2.3430 ho        1 MOL      0.413470
    189 H86         5.2500   -1.2740    1.5320 ho        1 MOL      0.413470
@<TRIPOS>BOND
     1    1    2 1   
     2    1    4 1   
     3    1    5 1   
     4    1    6 1   
     5    2    3 2   
     6    2    7 1   
     7    7    8 1   
     8    7   15 1   
     9    8    9 1   
    10    8   11 1   
    11    8   16 1   
    12    9   10 2   
    13    9   19 1   
    14   11   12 1   
    15   11   17 1   
    16   11   18 1   
    17   12   13 1   
    18   12   14 1   
    19   19   20 1   
    20   19   27 1   
    21   20   21 1   
    22   20   23 1   
    23   20   28 1   
    24   21   22 2   
    25   21   38 1   
    26   23   24 1   
    27   23   25 1   
    28   23   29 1   
    29   24   26 1   
    30   24   30 1   
    31   24   31 1   
    32   25   32 1   
    33   25   33 1   
    34   25   34 1   
    35   26   35 1   
    36   26   36 1   
    37   26   37 1   
    38   38   39 1   
    39   38   46 1   
    40   39   40 1   
    41   39   42 1   
    42   39   47 1   
    43   40   41 2   
    44   40   50 1   
    45   42   43 1   
    46   42   48 1   
    47   42   49 1   
    48   43   44 1   
    49   43   45 1   
    50   50   51 1   
    51   50   54 1   
    52   51   52 1   
    53   51   55 1   
    54   51   56 1   
    55   52   53 2   
    56   52   57 1   
    57   57   58 1   
    58   57   65 1   
    59   58   59 1   
    60   58   61 1   
    61   58   66 1   
    62   59   60 2   
    63   59   69 1   
    64   61   62 1   
    65   61   67 1   
    66   61   68 1   
    67   62   63 1   
    68   62   64 1   
    69   69   70 1   
    70   69   73 1   
    71   70   71 1   
    72   70   74 1   
    73   70   75 1   
    74   71   72 2   
    75   71   76 1   
    76   76   77 1   
    77   76   85 1   
    78   77   78 1   
    79   77   80 1   
    80   77   86 1   
    81   78   79 2   
    82   78   93 1   
    83   80   81 1   
    84   80   87 1   
    85   80   88 1   
    86   81   82 1   
    87   81   89 1   
    88   81   90 1   
    89   82   83 1   
    90   82   84 2   
    91   83   91 1   
    92   83   92 1   
    93   93   94 1   
    94   93  100 1   
    95   94   95 1   
    96   94   97 1   
    97   94  101 1   
    98   95   96 2   
    99   95  109 1   
   100   97   98 1   
   101   97   99 1   
   102   97  102 1   
   103   98  103 1   
   104   98  104 1   
   105   98  105 1   
   106   99  106 1   
   107   99  107 1   
   108   99  108 1   
   109  109  110 1   
   110  109  117 1   
   111  110  111 1   
   112  110  113 1   
   113  110  118 1   
   114  111  112 2   
   115  111  123 1   
   116  113  114 1   
   117  113  119 1   
   118  113  120 1   
   119  114  115 1   
   120  114  116 2   
   121  115  121 1   
   122  115  122 1   
   123  123  124 1   
   124  123  135 1   
   125  124  125 1   
   126  124  127 1   
   127  124  136 1   
   128  125  126 2   
   129  125  144 1   
   130  127  128 1   
   131  127  137 1   
   132  127  138 1   
   133  128  129 ar  
   134  128  130 ar  
   135  129  131 ar  
   136  129  139 1   
   137  130  132 ar  
   138  130  140 1   
   139  131  133 ar  
   140  131  141 1   
   141  132  133 ar  
   142  132  142 1   
   143  133  134 1   
   144  134  143 1   
   145  144  145 1   
   146  144  153 1   
   147  145  146 1   
   148  145  148 1   
   149  145  154 1   
   150  146  147 2   
   151  146  159 1   
   152  148  149 1   
   153  148  155 1   
   154  148  156 1   
   155  149  150 1   
   156  149  157 1   
   157  149  158 1   
   158  150  151 1   
   159  150  152 1   
   160  159  160 1   
   161  159  168 1   
   162  160  161 1   
   163  160  163 1   
   164  160  169 1   
   165  161  162 2   
   166  161  174 1   
   167  163  164 1   
   168  163  170 1   
   169  163  171 1   
   170  164  165 1   
   171  164  172 1   
   172  164  173 1   
   173  165  166 1   
   174  165  167 1   
   175  174  175 1   
   176  174  179 1   
   177  175  176 1   
   178  175  177 1   
   179  175  178 1   
   180  181  182 1   
   181  181  183 1   
   182  184  185 1   
   183  184  186 1   
   184  187  188 1   
   185  187  189 1   
@<TRIPOS>SUBSTRUCTURE
     1 MOL         1 TEMP              0 ****  ****    0 ROOT
