@<TRIPOS>MOLECULE
MOL
  179   176     1     0     0
SMALL
resp


@<TRIPOS>ATOM
      1 C1          0.5930    4.4220    6.2840 c3        1 MOL     -0.397554
      2 C2          0.5120    3.9780    4.8260 c         1 MOL      0.733720
      3 O1          1.5680    3.9270    4.2070 o         1 MOL     -0.590518
      4 H1         -0.4120    4.4720    6.7050 hc        1 MOL      0.099607
      5 H2          1.1890    3.7070    6.8510 hc        1 MOL      0.099607
      6 H3          1.0570    5.4070    6.3390 hc        1 MOL      0.099607
      7 N1         -0.6550    3.7870    4.2530 n         1 MOL     -0.583995
      8 C3         -0.8830    3.3100    2.8770 c3        1 MOL      0.018997
      9 C4         -1.4030    4.4300    2.0050 c         1 MOL      0.714008
     10 O2         -2.2620    5.1890    2.3880 o         1 MOL     -0.597665
     11 C5         -1.9460    2.2210    2.8620 c3        1 MOL      0.000936
     12 C6         -1.9810    1.6080    1.4750 c         1 MOL      0.683036
     13 O3         -2.9650    0.8790    1.1010 o         1 MOL     -0.778709
     14 O4         -1.0600    1.8210    0.7150 o         1 MOL     -0.778709
     15 H4         -1.4570    3.8070    4.8700 hn        1 MOL      0.307539
     16 H5          0.0970    3.0040    2.5060 h1        1 MOL      0.067960
     17 H6         -2.9460    2.5600    3.1460 hc        1 MOL      0.010097
     18 H7         -1.7140    1.4530    3.5990 hc        1 MOL      0.010097
     19 N2         -0.8980    4.5970    0.8030 n         1 MOL     -0.407942
     20 C7         -1.1370    5.7140   -0.0600 c3        1 MOL     -0.112676
     21 C8         -2.5500    5.5660   -0.8140 c         1 MOL      0.571519
     22 O5         -2.9570    6.6520   -1.3520 o         1 MOL     -0.574645
     23 C9          0.1120    5.8640   -0.9680 c3        1 MOL     -0.063561
     24 C10         0.4010    4.5480   -1.8490 c3        1 MOL      0.013585
     25 C11         1.7110    4.4300   -2.7030 c3        1 MOL     -0.077040
     26 C12         1.7370    5.5610   -3.7110 c3        1 MOL      0.122291
     27 N3          2.9740    5.5720   -4.5170 n4        1 MOL     -0.429533
     28 H8         -0.2440    3.9120    0.4610 hn        1 MOL      0.238451
     29 H9         -1.2030    6.6650    0.4700 h1        1 MOL      0.136697
     30 H10         1.0290    5.9990   -0.3830 hc        1 MOL      0.035299
     31 H11        -0.0150    6.7590   -1.5880 hc        1 MOL      0.035299
     32 H12        -0.4390    4.4830   -2.5420 hc        1 MOL      0.081885
     33 H13         0.5030    3.7100   -1.1540 hc        1 MOL      0.081885
     34 H14         1.6780    3.4710   -3.2220 hc        1 MOL      0.066034
     35 H15         2.6080    4.5770   -2.1020 hc        1 MOL      0.066034
     36 H16         1.7620    6.4190   -3.0390 hx        1 MOL      0.043079
     37 H17         0.7670    5.6120   -4.1940 hx        1 MOL      0.043079
     38 H18         2.8420    6.0440   -5.4010 hn        1 MOL      0.341621
     39 H19         3.7390    6.0030   -4.0310 hn        1 MOL      0.341621
     40 H20         3.3000    4.6270   -4.7110 hn        1 MOL      0.341621
     41 N4         -3.2920    4.4430   -0.8710 n         1 MOL     -0.404875
     42 C13        -4.5950    4.1670   -1.6300 c3        1 MOL      0.017009
     43 C14        -5.6890    3.2970   -0.9480 c         1 MOL      0.400560
     44 O6         -6.8990    3.2410   -1.3680 o         1 MOL     -0.510024
     45 C15        -4.1010    3.5370   -2.9300 c3        1 MOL     -0.320445
     46 C16        -3.3620    2.2500   -2.8730 c         1 MOL      0.783567
     47 O7         -3.1750    1.7390   -3.9710 o         1 MOL     -0.688777
     48 O8         -3.0980    1.7190   -1.7730 o         1 MOL     -0.688777
     49 H21        -2.8880    3.5750   -0.5390 hn        1 MOL      0.235252
     50 H22        -5.0800    5.0850   -1.9610 h1        1 MOL      0.129583
     51 H23        -3.4310    4.2120   -3.4690 hc        1 MOL      0.092436
     52 H24        -5.0130    3.2660   -3.4550 hc        1 MOL      0.092436
     53 N5         -5.3290    2.6750    0.1770 n         1 MOL     -0.111020
     54 C17        -6.2310    2.0740    1.1180 c3        1 MOL     -0.224029
     55 C18        -6.9180    0.8270    0.6930 c         1 MOL      0.579120
     56 O9         -8.0340    0.5930    1.1360 o         1 MOL     -0.557731
     57 H25        -4.3880    2.6820    0.5420 hn        1 MOL      0.167302
     58 H26        -7.0060    2.8150    1.3080 h1        1 MOL      0.110467
     59 H27        -5.7320    1.8400    2.0560 h1        1 MOL      0.110467
     60 N6         -6.2560    0.0250   -0.2010 n         1 MOL     -0.340200
     61 C19        -6.8160   -1.2470   -0.7630 c3        1 MOL      0.003797
     62 C20        -6.8230   -2.4820    0.1870 c         1 MOL      0.386555
     63 O10        -7.3550   -3.5710   -0.1090 o         1 MOL     -0.520782
     64 C21        -6.0660   -1.6250   -2.0820 c3        1 MOL     -0.452514
     65 C22        -4.6980   -2.2050   -1.8020 c         1 MOL      0.717112
     66 N7         -4.3350   -3.2460   -2.5560 n         1 MOL     -0.786655
     67 O11        -3.9860   -1.8260   -0.8750 o         1 MOL     -0.653434
     68 H28        -5.3630    0.3760   -0.5230 hn        1 MOL      0.250123
     69 H29        -7.8370   -0.9760   -1.0180 h1        1 MOL      0.143615
     70 H30        -6.1630   -0.7520   -2.7360 hc        1 MOL      0.158714
     71 H31        -6.7480   -2.3540   -2.5120 hc        1 MOL      0.158714
     72 H32        -5.0990   -3.7560   -2.9820 hn        1 MOL      0.395214
     73 H33        -3.3730   -3.5350   -2.4460 hn        1 MOL      0.395214
     74 N8         -6.1490   -2.3560    1.3100 n         1 MOL     -0.169649
     75 C23        -6.0450   -3.3910    2.3400 c3        1 MOL     -0.127054
     76 C24        -4.6190   -3.9900    2.6180 c         1 MOL      0.487458
     77 O12        -4.4850   -4.6580    3.6780 o         1 MOL     -0.539635
     78 H34        -5.6150   -1.5110    1.4490 hn        1 MOL      0.206376
     79 H35        -6.8310   -4.1320    2.1880 h1        1 MOL      0.106999
     80 H36        -6.3290   -2.8940    3.2700 h1        1 MOL      0.106999
     81 N9         -3.6230   -3.7570    1.7360 n         1 MOL     -0.396153
     82 C25        -2.1770   -4.1020    2.0300 c3        1 MOL      0.121711
     83 C26        -1.1550   -3.0210    1.6330 c         1 MOL      0.494468
     84 O13        -1.5020   -2.1300    0.8480 o         1 MOL     -0.545887
     85 C27        -1.9070   -5.4460    1.3070 c3        1 MOL     -0.134241
     86 C28        -1.6610   -5.4260   -0.1590 ca        1 MOL      0.047117
     87 C29        -0.3730   -5.3280   -0.6970 ca        1 MOL     -0.056459
     88 C30        -2.6620   -5.7800   -1.0710 ca        1 MOL     -0.056459
     89 C31        -0.1330   -5.6390   -2.0650 ca        1 MOL     -0.366898
     90 C32        -2.4350   -5.8860   -2.4390 ca        1 MOL     -0.366898
     91 C33        -1.1520   -5.8920   -2.9300 ca        1 MOL      0.432969
     92 O14        -0.9580   -6.1340   -4.2720 oh        1 MOL     -0.519565
     93 H37        -3.8800   -3.1530    0.9820 hn        1 MOL      0.296469
     94 H38        -2.0590   -4.4060    3.0660 h1        1 MOL      0.072938
     95 H39        -2.7500   -6.1050    1.5270 hc        1 MOL      0.077031
     96 H40        -1.0870   -6.0660    1.6700 hc        1 MOL      0.077031
     97 H41         0.3820   -5.1680    0.0550 ha        1 MOL      0.108061
     98 H42        -3.6880   -5.8160   -0.7070 ha        1 MOL      0.108061
     99 H43         0.8690   -5.5630   -2.4660 ha        1 MOL      0.166764
    100 H44        -3.2660   -6.1450   -3.0730 ha        1 MOL      0.166764
    101 H45        -0.0450   -6.2000   -4.5610 ho        1 MOL      0.372863
    102 N10         0.1120   -3.1390    2.1160 n         1 MOL     -0.494984
    103 C34         1.3460   -2.3240    1.8310 c3        1 MOL      0.012776
    104 C35         2.5100   -3.2210    1.2190 c         1 MOL      0.362076
    105 O15         2.7870   -4.2820    1.7650 o         1 MOL     -0.510857
    106 C36         1.8140   -1.3960    2.9480 c3        1 MOL      0.140580
    107 C37         1.7610   -2.0890    4.3300 c3        1 MOL      0.165256
    108 C38         0.9610   -0.1440    2.9640 c3        1 MOL     -0.729452
    109 C39         2.6520   -1.4720    5.3790 c3        1 MOL     -0.100785
    110 H46         0.2690   -3.8720    2.7860 hn        1 MOL      0.269379
    111 H47         1.1980   -1.6820    0.9710 h1        1 MOL      0.188984
    112 H48         2.8430   -1.0780    2.7910 hc        1 MOL     -0.038619
    113 H49         2.2190   -3.0730    4.2480 hc        1 MOL     -0.012396
    114 H50         0.7730   -2.3100    4.7080 hc        1 MOL     -0.012396
    115 H51         1.2390    0.5310    3.7730 hc        1 MOL      0.208226
    116 H52         1.2190    0.3460    2.0320 hc        1 MOL      0.208226
    117 H53        -0.0970   -0.3680    3.0760 hc        1 MOL      0.208226
    118 H54         2.7350   -2.1670    6.2140 hc        1 MOL      0.013175
    119 H55         3.6710   -1.2660    5.0490 hc        1 MOL      0.013175
    120 H56         2.1710   -0.5370    5.6790 hc        1 MOL      0.013175
    121 N11         3.2370   -2.7930    0.1850 n         1 MOL     -0.271333
    122 C40         4.5490   -3.3380   -0.2920 c3        1 MOL      0.173075
    123 C41         5.7770   -2.5760    0.2900 c         1 MOL      0.451718
    124 O16         5.6910   -1.5300    0.9450 o         1 MOL     -0.374119
    125 C42         4.5850   -3.1770   -1.8460 c3        1 MOL     -0.130847
    126 O17         4.3880   -1.7520   -2.0320 oh        1 MOL     -0.369882
    127 H57         2.9820   -1.9560   -0.3120 hn        1 MOL      0.167992
    128 H58         4.6590   -4.3930   -0.0510 h1        1 MOL      0.049434
    129 H59         3.7120   -3.6850   -2.2440 h1        1 MOL      0.075099
    130 H60         5.5040   -3.4660   -2.3530 h1        1 MOL      0.075099
    131 H61         4.3120   -1.5000   -2.9520 ho        1 MOL      0.379578
    132 N12         6.9830   -3.0210   -0.0350 n         1 MOL     -0.491189
    133 C43         8.2760   -2.3070    0.3440 c3        1 MOL      0.123032
    134 C44         8.2750   -0.8950   -0.2350 c         1 MOL      0.459533
    135 O18         8.5220    0.0030    0.5140 o         1 MOL     -0.474603
    136 C45         9.3600   -3.1640   -0.3590 c3        1 MOL     -0.210278
    137 H62         6.9180   -3.8140   -0.6570 hn        1 MOL      0.261432
    138 H63         8.4180   -2.2250    1.4230 h1        1 MOL      0.108344
    139 H64         9.3710   -4.2150   -0.0790 hc        1 MOL      0.071314
    140 H65         9.4860   -3.0140   -1.4390 hc        1 MOL      0.071314
    141 H66        10.2950   -2.8420    0.1060 hc        1 MOL      0.071314
    142 N13         7.9000   -0.7260   -1.5280 n         1 MOL     -0.394935
    143 C46         7.8540    0.5800   -2.1650 c3        1 MOL      0.058781
    144 C47         6.7690    1.4640   -1.5460 c         1 MOL      0.415197
    145 O19         7.0110    2.6550   -1.5280 o         1 MOL     -0.543040
    146 C48         7.7320    0.3560   -3.7030 c3        1 MOL     -0.360926
    147 H67         7.6620   -1.5120   -2.1040 hn        1 MOL      0.291661
    148 H68         8.7780    1.1060   -1.9530 h1        1 MOL      0.121115
    149 H69         6.7970   -0.1770   -3.8490 hc        1 MOL      0.104550
    150 H70         7.7290    1.3660   -4.1270 hc        1 MOL      0.104550
    151 H71         8.5540   -0.2010   -4.1490 hc        1 MOL      0.104550
    152 N14         5.6800    0.9850   -0.9830 n         1 MOL     -0.017127
    153 C49         4.6800    1.7280   -0.2050 c3        1 MOL      0.106561
    154 C50         5.0300    1.9880    1.2740 c         1 MOL      0.400537
    155 O20         4.9300    3.1200    1.7480 o         1 MOL     -0.533100
    156 C51         3.3050    1.0400   -0.2350 c3        1 MOL     -0.157588
    157 C52         2.6170    1.1400   -1.6190 c3        1 MOL      0.024649
    158 C53         1.1420    0.6820   -1.4990 c         1 MOL      0.875500
    159 O21         0.8580   -0.3760   -0.9180 o         1 MOL     -0.843791
    160 O22         0.1840    1.2670   -2.0030 o         1 MOL     -0.843791
    161 H72         5.6070   -0.0250   -0.9220 hn        1 MOL     -0.128721
    162 H73         4.6540    2.7350   -0.6290 h1        1 MOL      0.020290
    163 H74         2.6030    1.4520    0.4890 hc        1 MOL      0.101022
    164 H75         3.4860   -0.0150   -0.0550 hc        1 MOL      0.101022
    165 H76         3.0800    0.6140   -2.4580 hc        1 MOL     -0.092362
    166 H77         2.7470    2.1890   -1.8620 hc        1 MOL     -0.092362
    167 N15         5.6080    1.0920    2.0460 n         1 MOL     -0.115750
    168 C54         6.4150    1.4060    3.2970 c3        1 MOL     -0.201035
    169 H78         5.7840    1.2800    4.1770 h1        1 MOL      0.094714
    170 H79         7.2670    0.7280    3.3600 h1        1 MOL      0.094714
    171 H80         6.7720    2.4350    3.2500 h1        1 MOL      0.094714
    172 H81         5.6390    0.1010    1.8480 hn        1 MOL      0.161433
    173 Ca1        -1.7760   -0.2130   -0.9810 Ca        1 MOL      1.804377
    174 O23        -1.0690   -2.6660   -1.9750 oh        1 MOL     -0.828006
    175 H82        -0.5700   -2.6290   -2.7910 ho        1 MOL      0.382243
    176 H83        -0.7970   -3.4850   -1.5690 ho        1 MOL      0.382243
    177 O24        -2.4480   -0.7260   -3.5050 oh        1 MOL     -0.828006
    178 H84        -2.6870    0.1260   -3.8480 ho        1 MOL      0.382243
    179 H85        -2.1330   -1.2190   -4.2650 ho        1 MOL      0.382243
@<TRIPOS>BOND
     1    1    2 1   
     2    1    4 1   
     3    1    5 1   
     4    1    6 1   
     5    2    3 2   
     6    2    7 1   
     7    7    8 1   
     8    7   15 1   
     9    8    9 1   
    10    8   11 1   
    11    8   16 1   
    12    9   10 2   
    13    9   19 1   
    14   11   12 1   
    15   11   17 1   
    16   11   18 1   
    17   12   13 1   
    18   12   14 1   
    19   19   20 1   
    20   19   28 1   
    21   20   21 1   
    22   20   23 1   
    23   20   29 1   
    24   21   22 2   
    25   21   41 1   
    26   23   24 1   
    27   23   30 1   
    28   23   31 1   
    29   24   25 1   
    30   24   32 1   
    31   24   33 1   
    32   25   26 1   
    33   25   34 1   
    34   25   35 1   
    35   26   27 1   
    36   26   36 1   
    37   26   37 1   
    38   27   38 1   
    39   27   39 1   
    40   27   40 1   
    41   41   42 1   
    42   41   49 1   
    43   42   43 1   
    44   42   45 1   
    45   42   50 1   
    46   43   44 2   
    47   43   53 1   
    48   45   46 1   
    49   45   51 1   
    50   45   52 1   
    51   46   47 1   
    52   46   48 1   
    53   53   54 1   
    54   53   57 1   
    55   54   55 1   
    56   54   58 1   
    57   54   59 1   
    58   55   56 2   
    59   55   60 1   
    60   60   61 1   
    61   60   68 1   
    62   61   62 1   
    63   61   64 1   
    64   61   69 1   
    65   62   63 2   
    66   62   74 1   
    67   64   65 1   
    68   64   70 1   
    69   64   71 1   
    70   65   66 1   
    71   65   67 2   
    72   66   72 1   
    73   66   73 1   
    74   74   75 1   
    75   74   78 1   
    76   75   76 1   
    77   75   79 1   
    78   75   80 1   
    79   76   77 2   
    80   76   81 1   
    81   81   82 1   
    82   81   93 1   
    83   82   83 1   
    84   82   85 1   
    85   82   94 1   
    86   83   84 2   
    87   83  102 1   
    88   85   86 1   
    89   85   95 1   
    90   85   96 1   
    91   86   87 ar  
    92   86   88 ar  
    93   87   89 ar  
    94   87   97 1   
    95   88   90 ar  
    96   88   98 1   
    97   89   91 ar  
    98   89   99 1   
    99   90   91 ar  
   100   90  100 1   
   101   91   92 1   
   102   92  101 1   
   103  102  103 1   
   104  102  110 1   
   105  103  104 1   
   106  103  106 1   
   107  103  111 1   
   108  104  105 2   
   109  104  121 1   
   110  106  107 1   
   111  106  108 1   
   112  106  112 1   
   113  107  109 1   
   114  107  113 1   
   115  107  114 1   
   116  108  115 1   
   117  108  116 1   
   118  108  117 1   
   119  109  118 1   
   120  109  119 1   
   121  109  120 1   
   122  121  122 1   
   123  121  127 1   
   124  122  123 1   
   125  122  125 1   
   126  122  128 1   
   127  123  124 2   
   128  123  132 1   
   129  125  126 1   
   130  125  129 1   
   131  125  130 1   
   132  126  131 1   
   133  132  133 1   
   134  132  137 1   
   135  133  134 1   
   136  133  136 1   
   137  133  138 1   
   138  134  135 2   
   139  134  142 1   
   140  136  139 1   
   141  136  140 1   
   142  136  141 1   
   143  142  143 1   
   144  142  147 1   
   145  143  144 1   
   146  143  146 1   
   147  143  148 1   
   148  144  145 2   
   149  144  152 1   
   150  146  149 1   
   151  146  150 1   
   152  146  151 1   
   153  152  153 1   
   154  152  161 1   
   155  153  154 1   
   156  153  156 1   
   157  153  162 1   
   158  154  155 2   
   159  154  167 1   
   160  156  157 1   
   161  156  163 1   
   162  156  164 1   
   163  157  158 1   
   164  157  165 1   
   165  157  166 1   
   166  158  159 1   
   167  158  160 1   
   168  167  168 1   
   169  167  172 1   
   170  168  169 1   
   171  168  170 1   
   172  168  171 1   
   173  174  175 1   
   174  174  176 1   
   175  177  178 1   
   176  177  179 1   
@<TRIPOS>SUBSTRUCTURE
     1 MOL         1 TEMP              0 ****  ****    0 ROOT
