@<TRIPOS>MOLECULE
MOL
  189   185     1     0     0
SMALL
resp


@<TRIPOS>ATOM
      1 C1          0.0600    0.2940    6.4350 c3        1 MOL     -0.176716
      2 C2         -0.3690    0.5060    4.9950 c         1 MOL      0.704198
      3 O1          0.3410    1.1740    4.2490 o         1 MOL     -0.560053
      4 H1         -0.4300    1.0310    7.0710 hc        1 MOL      0.047497
      5 H2         -0.2240   -0.7080    6.7550 hc        1 MOL      0.047497
      6 H3          1.1410    0.4090    6.5130 hc        1 MOL      0.047497
      7 N1         -1.5800    0.1000    4.6010 n         1 MOL     -0.612878
      8 C3         -2.1770    0.5070    3.2880 c3        1 MOL      0.094632
      9 C4         -2.5090    2.0350    3.3160 c         1 MOL      0.536916
     10 O2         -3.0740    2.5910    4.2990 o         1 MOL     -0.585735
     11 C5         -3.3160   -0.2710    2.7340 c3        1 MOL      0.060284
     12 C6         -3.9800    0.2770    1.4130 c         1 MOL      0.425328
     13 O3         -3.4060    0.7870    0.3960 o         1 MOL     -0.582320
     14 O4         -5.2170    0.3000    1.3910 o         1 MOL     -0.582320
     15 H4         -2.1330   -0.4380    5.2550 hn        1 MOL      0.324054
     16 H5         -1.3740    0.3930    2.5660 h1        1 MOL      0.015956
     17 H6         -4.0710   -0.3340    3.5220 hc        1 MOL     -0.000958
     18 H7         -3.0230   -1.3000    2.5020 hc        1 MOL     -0.000958
     19 N2         -2.1820    2.7470    2.2340 n         1 MOL     -0.008908
     20 C7         -2.5830    4.1790    2.0940 c3        1 MOL     -0.134920
     21 C8         -3.4030    4.5270    0.9050 c         1 MOL      0.592183
     22 O5         -3.6030    5.7440    0.6420 o         1 MOL     -0.590060
     23 C9         -1.3180    5.0440    2.4120 c3        1 MOL     -0.029203
     24 C10        -0.1250    4.7880    1.4470 c3        1 MOL     -0.241857
     25 C11        -0.3840    4.9940   -0.0220 c3        1 MOL      0.002874
     26 C12         0.7850    4.4090   -0.7150 c3        1 MOL      0.004181
     27 N3          0.4020    3.8650   -2.0510 n4        1 MOL     -0.202891
     28 H8         -1.5660    2.3570    1.5390 hn        1 MOL     -0.057765
     29 H9         -3.3680    4.3710    2.8280 h1        1 MOL      0.124371
     30 H10        -1.0370    4.7680    3.4250 hc        1 MOL      0.041724
     31 H11        -1.5580    6.1020    2.4000 hc        1 MOL      0.041724
     32 H12         0.2160    3.7840    1.6530 hc        1 MOL      0.090982
     33 H13         0.7010    5.4400    1.7270 hc        1 MOL      0.090982
     34 H14        -0.5830    5.9990   -0.3840 hc        1 MOL      0.086875
     35 H15        -1.2850    4.4200   -0.2200 hc        1 MOL      0.086875
     36 H16         1.2990    3.6170   -0.1920 hx        1 MOL     -0.002548
     37 H17         1.3980    5.3100   -0.7590 hx        1 MOL     -0.002548
     38 H18        -0.1360    3.0160   -1.9450 hn        1 MOL      0.239924
     39 H19        -0.3110    4.4140   -2.5070 hn        1 MOL      0.239924
     40 H20         1.1120    3.5840   -2.7180 hn        1 MOL      0.239924
     41 N4         -4.0060    3.6120    0.1990 n         1 MOL     -0.475842
     42 C13        -4.8420    3.8600   -1.0030 c3        1 MOL     -0.021939
     43 C14        -6.3050    3.3630   -0.7610 c         1 MOL      0.510992
     44 O6         -7.1640    3.7320   -1.5360 o         1 MOL     -0.510836
     45 C15        -4.2600    3.2730   -2.3260 c3        1 MOL     -0.067503
     46 C16        -2.7410    3.3900   -2.3630 c         1 MOL      0.793074
     47 O7         -2.0640    2.5420   -1.8630 o         1 MOL     -0.736277
     48 O8         -2.1660    4.3340   -2.9430 o         1 MOL     -0.736277
     49 H21        -3.7810    2.6720    0.4970 hn        1 MOL      0.250134
     50 H22        -4.9910    4.9280   -1.1250 h1        1 MOL      0.114949
     51 H23        -4.5920    3.7560   -3.2500 hc        1 MOL      0.026116
     52 H24        -4.5650    2.2280   -2.3630 hc        1 MOL      0.026116
     53 N5         -6.6550    2.4740    0.2740 n         1 MOL     -0.321238
     54 C17        -7.9940    1.8400    0.3710 c3        1 MOL     -0.386102
     55 C18        -8.0600    0.6820   -0.6540 c         1 MOL      0.652229
     56 O9         -9.1490    0.3470   -1.0850 o         1 MOL     -0.565958
     57 H25        -5.9970    2.1830    0.9760 hn        1 MOL      0.263249
     58 H26        -8.7120    2.6200    0.1280 h1        1 MOL      0.174126
     59 H27        -8.0500    1.4510    1.3930 h1        1 MOL      0.174126
     60 N6         -6.9130   -0.0160   -0.9390 n         1 MOL     -0.453951
     61 C19        -6.8470   -1.2270   -1.8160 c3        1 MOL      0.063477
     62 C20        -6.6030   -2.5010   -0.9880 c         1 MOL      0.385843
     63 O10        -6.8580   -3.5740   -1.5450 o         1 MOL     -0.525687
     64 C21        -5.7780   -1.1160   -2.8850 c3        1 MOL     -0.045997
     65 C22        -4.3340   -0.8900   -2.3690 c         1 MOL      0.789803
     66 O11        -3.8740   -1.6720   -1.5680 o         1 MOL     -0.761320
     67 O12        -3.6630   -0.0650   -2.9490 o         1 MOL     -0.761320
     68 H28        -6.1000    0.3110   -0.4530 hn        1 MOL      0.271641
     69 H29        -7.7880   -1.3470   -2.3480 h1        1 MOL      0.100557
     70 H30        -6.0830   -0.3710   -3.6190 hc        1 MOL      0.019502
     71 H31        -5.7990   -2.0240   -3.4820 hc        1 MOL      0.019502
     72 N7         -6.1310   -2.3980    0.2550 n         1 MOL     -0.146840
     73 C23        -6.0690   -3.6410    0.9970 c3        1 MOL     -0.274675
     74 C24        -4.8390   -4.5650    0.7320 c         1 MOL      0.479963
     75 O13        -4.8800   -5.8010    0.8730 o         1 MOL     -0.514901
     76 H32        -5.8920   -1.4860    0.6140 hn        1 MOL      0.180129
     77 H33        -6.9170   -4.2730    0.7140 h1        1 MOL      0.134979
     78 H34        -6.0580   -3.4240    2.0640 h1        1 MOL      0.134979
     79 N8         -3.7290   -3.9310    0.2700 n         1 MOL     -0.287619
     80 C25        -2.5110   -4.5760   -0.1040 c3        1 MOL     -0.171535
     81 C26        -1.3040   -3.6320   -0.1190 c         1 MOL      0.545709
     82 O14        -1.4200   -2.4070   -0.2390 o         1 MOL     -0.700204
     83 C27        -2.5400   -5.1360   -1.5680 c3        1 MOL      0.351028
     84 C28        -3.6710   -6.0150   -1.8310 c3        1 MOL     -0.467982
     85 O15        -2.6670   -3.9570   -2.3670 oh        1 MOL     -0.595295
     86 H35        -3.7260   -2.9360    0.0900 hn        1 MOL      0.377996
     87 H36        -2.3590   -5.4440    0.5400 h1        1 MOL      0.097683
     88 H37        -1.5750   -5.5690   -1.8160 h1        1 MOL      0.027789
     89 H38        -3.3120   -3.3890   -1.9440 ho        1 MOL      0.367372
     90 H39        -4.6310   -5.5040   -1.8280 hc        1 MOL      0.134357
     91 H40        -3.5510   -6.3800   -2.8510 hc        1 MOL      0.134357
     92 H41        -3.6500   -6.8680   -1.1590 hc        1 MOL      0.134357
     93 N9         -0.1080   -4.2310    0.0880 n         1 MOL     -0.367541
     94 C29         1.0940   -3.6110    0.6170 c3        1 MOL      0.090508
     95 C30         2.2060   -3.7410   -0.4830 c         1 MOL      0.341962
     96 O16         2.6810   -4.8080   -0.7850 o         1 MOL     -0.491871
     97 C31         1.4690   -4.3370    1.8930 c3        1 MOL     -0.004733
     98 C32         0.3890   -4.2260    2.9970 c3        1 MOL     -0.005325
     99 C33         2.7440   -3.6820    2.4500 c3        1 MOL     -0.065531
    100 C34        -0.3520   -2.9070    3.2020 c3        1 MOL     -0.038153
    101 H42        -0.0980   -5.2380    0.0430 hn        1 MOL      0.241705
    102 H43         0.8870   -2.5640    0.8700 h1        1 MOL      0.097423
    103 H44         1.7310   -5.3970    1.7900 hc        1 MOL      0.037080
    104 H45         0.8000   -4.6130    3.9270 hc        1 MOL      0.011620
    105 H46        -0.3940   -4.9410    2.7430 hc        1 MOL      0.011620
    106 H47         3.5530   -3.7460    1.7230 hc        1 MOL      0.014569
    107 H48         2.4820   -2.6400    2.6710 hc        1 MOL      0.014569
    108 H49         3.1510   -4.2820    3.2570 hc        1 MOL      0.014569
    109 H50        -1.1080   -2.7480    2.4460 hc        1 MOL      0.001294
    110 H51        -0.8560   -3.1080    4.1500 hc        1 MOL      0.001294
    111 H52         0.3010   -2.0460    3.3500 hc        1 MOL      0.001294
    112 N10         2.6350   -2.5780   -1.0130 n         1 MOL      0.009949
    113 C35         3.7320   -2.3640   -1.8570 c3        1 MOL     -0.099449
    114 C36         5.0650   -2.3080   -1.1390 c         1 MOL      0.282919
    115 O17         5.0860   -2.2160    0.0540 o         1 MOL     -0.223492
    116 C37         3.5750   -1.0730   -2.7230 c3        1 MOL      0.229328
    117 C38         2.4110   -1.0920   -3.6540 c3        1 MOL     -0.384531
    118 O18         3.3990   -0.0480   -1.8050 oh        1 MOL     -0.456599
    119 H53         2.0670   -1.7750   -0.8170 hn        1 MOL      0.036506
    120 H54         3.7790   -3.2390   -2.5070 h1        1 MOL      0.072381
    121 H55         4.5200   -0.8320   -3.2110 h1        1 MOL      0.053821
    122 H56         2.5850   -0.2550   -1.3270 ho        1 MOL      0.268138
    123 H57         2.3510   -0.0830   -4.0550 hc        1 MOL      0.098893
    124 H58         2.5050   -1.8910   -4.3820 hc        1 MOL      0.098893
    125 H59         1.4570   -1.2080   -3.1420 hc        1 MOL      0.098893
    126 N11         6.2050   -2.3390   -1.7950 n         1 MOL     -0.268866
    127 C39         7.5320   -2.1120   -1.1990 c3        1 MOL     -0.225985
    128 C40         7.4780   -0.8080   -0.3380 c         1 MOL      0.356801
    129 O19         8.0020   -0.7570    0.7660 o         1 MOL     -0.466166
    130 C41         8.6640   -2.0500   -2.1970 c3        1 MOL      0.475686
    131 C42         8.7590   -3.3500   -2.9000 c3        1 MOL     -0.286587
    132 O20         8.5900   -0.9780   -3.0970 oh        1 MOL     -0.625600
    133 H60         6.1840   -2.3830   -2.7980 hn        1 MOL      0.250199
    134 H61         7.7340   -2.9130   -0.4870 h1        1 MOL      0.153256
    135 H62         9.5780   -1.8030   -1.6520 h1        1 MOL     -0.006791
    136 H63         9.1220   -0.2940   -2.6950 ho        1 MOL      0.379890
    137 H64         8.9740   -4.0880   -2.1280 hc        1 MOL      0.080477
    138 H65         7.7760   -3.5880   -3.2980 hc        1 MOL      0.080477
    139 H66         9.5080   -3.3100   -3.6910 hc        1 MOL      0.080477
    140 N12         6.9290    0.2850   -0.9580 n         1 MOL     -0.169529
    141 C43         6.8280    1.6480   -0.2660 c3        1 MOL     -0.206945
    142 C44         5.9690    1.5690    0.9760 c         1 MOL      0.482666
    143 O21         6.0130    2.4280    1.8600 o         1 MOL     -0.556398
    144 C45         6.4180    2.7040   -1.3320 c3        1 MOL      0.093532
    145 C46         6.3210    4.1560   -0.8200 c3        1 MOL      0.217899
    146 C47         6.6650    5.0560   -2.0460 c3        1 MOL     -0.122298
    147 C48         6.5380    6.5620   -1.6230 c3        1 MOL     -0.160540
    148 N13         5.1220    6.9570   -1.5690 n4        1 MOL     -0.315128
    149 H67         6.6720    0.1980   -1.9350 hn        1 MOL      0.204193
    150 H68         7.8510    1.8400    0.0630 h1        1 MOL      0.127825
    151 H69         5.4470    2.3570   -1.6750 hc        1 MOL     -0.034816
    152 H70         7.1190    2.5910   -2.1590 hc        1 MOL     -0.034816
    153 H71         6.9790    4.3740    0.0130 hc        1 MOL     -0.023792
    154 H72         5.3040    4.3030   -0.4540 hc        1 MOL     -0.023792
    155 H73         5.9700    4.8690   -2.8670 hc        1 MOL      0.064803
    156 H74         7.6860    4.8110   -2.3180 hc        1 MOL      0.064803
    157 H75         6.9480    7.1740   -2.4270 hx        1 MOL      0.157583
    158 H76         7.0820    6.7080   -0.6830 hx        1 MOL      0.157583
    159 H77         4.6850    6.8990   -2.4800 hn        1 MOL      0.325367
    160 H78         4.5280    6.3370   -1.0360 hn        1 MOL      0.325367
    161 H79         5.0640    7.9410   -1.3100 hn        1 MOL      0.325367
    162 N14         5.0020    0.6580    1.0050 n         1 MOL      0.021213
    163 C49         4.2990    0.3300    2.2740 c3        1 MOL     -0.149285
    164 C50         5.0450   -0.7080    3.1250 c         1 MOL      0.539069
    165 O22         4.9550   -0.5680    4.3330 o         1 MOL     -0.549872
    166 C51         2.8410   -0.0780    1.9990 c3        1 MOL     -0.041570
    167 C52         2.1110    1.0500    1.2250 c3        1 MOL     -0.028366
    168 C53         0.8440    0.6990    0.3910 c         1 MOL      0.664075
    169 O23         0.9390   -0.1410   -0.5350 o         1 MOL     -0.600478
    170 O24        -0.2260    1.3760    0.5570 o         1 MOL     -0.600478
    171 H80         4.9110   -0.0420    0.2770 hn        1 MOL     -0.089668
    172 H81         4.2230    1.2070    2.9100 h1        1 MOL      0.123036
    173 H82         2.3510   -0.3090    2.9430 hc        1 MOL      0.050995
    174 H83         2.7900   -0.9760    1.3930 hc        1 MOL      0.050995
    175 H84         2.8120    1.5650    0.5630 hc        1 MOL      0.008092
    176 H85         1.7180    1.7160    1.9910 hc        1 MOL      0.008092
    177 N15         5.8390   -1.6940    2.6530 n         1 MOL     -0.187459
    178 C54         6.6130   -2.6210    3.5020 c3        1 MOL     -0.282442
    179 H86         7.3250   -3.1700    2.8860 h1        1 MOL      0.110601
    180 H87         7.1530   -2.0540    4.2620 h1        1 MOL      0.110601
    181 H88         5.9350   -3.3240    3.9870 h1        1 MOL      0.110601
    182 H89         5.7990   -1.9950    1.6860 hn        1 MOL      0.153764
    183 Ca1        -1.6410    0.0470   -1.3010 Ca        1 MOL      1.700584
    184 O25        -1.1880   -1.5390   -3.4140 oh        1 MOL     -0.818931
    185 H90        -0.8360   -1.7650   -4.2790 ho        1 MOL      0.406739
    186 H91        -2.0250   -1.9890   -3.3690 ho        1 MOL      0.406739
    187 O26        -0.0740    0.9790   -3.3920 oh        1 MOL     -0.818931
    188 H92        -0.3890    0.4000   -4.0890 ho        1 MOL      0.406739
    189 H93         0.7160    1.3860   -3.7560 ho        1 MOL      0.406739
@<TRIPOS>BOND
     1    1    2 1   
     2    1    4 1   
     3    1    5 1   
     4    1    6 1   
     5    2    3 2   
     6    2    7 1   
     7    7    8 1   
     8    7   15 1   
     9    8    9 1   
    10    8   11 1   
    11    8   16 1   
    12    9   10 2   
    13    9   19 1   
    14   11   12 1   
    15   11   17 1   
    16   11   18 1   
    17   12   13 1   
    18   12   14 1   
    19   19   20 1   
    20   19   28 1   
    21   20   21 1   
    22   20   23 1   
    23   20   29 1   
    24   21   22 2   
    25   21   41 1   
    26   23   24 1   
    27   23   30 1   
    28   23   31 1   
    29   24   25 1   
    30   24   32 1   
    31   24   33 1   
    32   25   26 1   
    33   25   34 1   
    34   25   35 1   
    35   26   27 1   
    36   26   36 1   
    37   26   37 1   
    38   27   38 1   
    39   27   39 1   
    40   27   40 1   
    41   41   42 1   
    42   41   49 1   
    43   42   43 1   
    44   42   45 1   
    45   42   50 1   
    46   43   44 2   
    47   43   53 1   
    48   45   46 1   
    49   45   51 1   
    50   45   52 1   
    51   46   47 1   
    52   46   48 1   
    53   53   54 1   
    54   53   57 1   
    55   54   55 1   
    56   54   58 1   
    57   54   59 1   
    58   55   56 2   
    59   55   60 1   
    60   60   61 1   
    61   60   68 1   
    62   61   62 1   
    63   61   64 1   
    64   61   69 1   
    65   62   63 2   
    66   62   72 1   
    67   64   65 1   
    68   64   70 1   
    69   64   71 1   
    70   65   66 1   
    71   65   67 1   
    72   72   73 1   
    73   72   76 1   
    74   73   74 1   
    75   73   77 1   
    76   73   78 1   
    77   74   75 2   
    78   74   79 1   
    79   79   80 1   
    80   79   86 1   
    81   80   81 1   
    82   80   83 1   
    83   80   87 1   
    84   81   82 2   
    85   81   93 1   
    86   83   84 1   
    87   83   85 1   
    88   83   88 1   
    89   84   90 1   
    90   84   91 1   
    91   84   92 1   
    92   85   89 1   
    93   93   94 1   
    94   93  101 1   
    95   94   95 1   
    96   94   97 1   
    97   94  102 1   
    98   95   96 2   
    99   95  112 1   
   100   97   98 1   
   101   97   99 1   
   102   97  103 1   
   103   98  100 1   
   104   98  104 1   
   105   98  105 1   
   106   99  106 1   
   107   99  107 1   
   108   99  108 1   
   109  100  109 1   
   110  100  110 1   
   111  100  111 1   
   112  112  113 1   
   113  112  119 1   
   114  113  114 1   
   115  113  116 1   
   116  113  120 1   
   117  114  115 2   
   118  114  126 1   
   119  116  117 1   
   120  116  118 1   
   121  116  121 1   
   122  117  123 1   
   123  117  124 1   
   124  117  125 1   
   125  118  122 1   
   126  126  127 1   
   127  126  133 1   
   128  127  128 1   
   129  127  130 1   
   130  127  134 1   
   131  128  129 2   
   132  128  140 1   
   133  130  131 1   
   134  130  132 1   
   135  130  135 1   
   136  131  137 1   
   137  131  138 1   
   138  131  139 1   
   139  132  136 1   
   140  140  141 1   
   141  140  149 1   
   142  141  142 1   
   143  141  144 1   
   144  141  150 1   
   145  142  143 2   
   146  142  162 1   
   147  144  145 1   
   148  144  151 1   
   149  144  152 1   
   150  145  146 1   
   151  145  153 1   
   152  145  154 1   
   153  146  147 1   
   154  146  155 1   
   155  146  156 1   
   156  147  148 1   
   157  147  157 1   
   158  147  158 1   
   159  148  159 1   
   160  148  160 1   
   161  148  161 1   
   162  162  163 1   
   163  162  171 1   
   164  163  164 1   
   165  163  166 1   
   166  163  172 1   
   167  164  165 2   
   168  164  177 1   
   169  166  167 1   
   170  166  173 1   
   171  166  174 1   
   172  167  168 1   
   173  167  175 1   
   174  167  176 1   
   175  168  169 1   
   176  168  170 1   
   177  177  178 1   
   178  177  182 1   
   179  178  179 1   
   180  178  180 1   
   181  178  181 1   
   182  184  185 1   
   183  184  186 1   
   184  187  188 1   
   185  187  189 1   
@<TRIPOS>SUBSTRUCTURE
     1 MOL         1 TEMP              0 ****  ****    0 ROOT
