@<TRIPOS>MOLECULE
MOL
  189   185     1     0     0
SMALL
resp


@<TRIPOS>ATOM
      1 C1         -0.6120    3.0100    5.5660 c3        1 MOL     -0.338276
      2 C2         -0.8210    2.4630    4.1480 c         1 MOL      0.727924
      3 O1         -0.0760    2.6340    3.2300 o         1 MOL     -0.647371
      4 H1          0.1960    3.7410    5.5580 hc        1 MOL      0.082321
      5 H2         -1.5290    3.4880    5.9110 hc        1 MOL      0.082321
      6 H3         -0.3540    2.1910    6.2370 hc        1 MOL      0.082321
      7 N1         -1.9800    1.8390    3.9130 n         1 MOL     -0.540773
      8 C3         -2.3220    1.4610    2.5510 c3        1 MOL      0.109463
      9 C4         -2.9330    2.6340    1.7390 c         1 MOL      0.376639
     10 O2         -4.1420    2.9320    1.9710 o         1 MOL     -0.480500
     11 C5         -3.2380    0.2330    2.5800 c3        1 MOL     -0.135019
     12 C6         -4.1770   -0.0250    1.3480 c         1 MOL      0.606633
     13 O3         -3.7480    0.2260    0.2180 o         1 MOL     -0.617575
     14 O4         -5.3490   -0.4470    1.6440 o         1 MOL     -0.617575
     15 H4         -2.6170    1.5450    4.6360 hn        1 MOL      0.309993
     16 H5         -1.4150    1.2120    1.9890 h1        1 MOL      0.048007
     17 H6         -3.9370    0.2800    3.4180 hc        1 MOL      0.032826
     18 H7         -2.6460   -0.6720    2.7150 hc        1 MOL      0.032826
     19 N2         -2.0830    3.3450    0.9990 n         1 MOL     -0.269033
     20 C7         -2.4170    4.6530    0.4160 c3        1 MOL     -0.009150
     21 C8         -3.4610    4.6260   -0.7270 c         1 MOL      0.356118
     22 O5         -4.2850    5.5310   -0.7850 o         1 MOL     -0.537663
     23 C9         -1.0880    5.3470   -0.0460 c3        1 MOL      0.008292
     24 C10        -1.2040    6.8980    0.0010 c3        1 MOL     -0.095641
     25 C11        -0.8470    7.4220    1.4290 c3        1 MOL      0.096931
     26 C12        -1.2210    8.9210    1.4690 c3        1 MOL     -0.000929
     27 N3         -1.2570    9.4880    2.8030 n4        1 MOL     -0.279405
     28 H8         -1.1760    2.9560    0.8150 hn        1 MOL      0.267738
     29 H9         -2.8840    5.2470    1.1980 h1        1 MOL      0.080150
     30 H10        -0.7140    4.9520   -0.9910 hc        1 MOL      0.034884
     31 H11        -0.1770    5.0850    0.5060 hc        1 MOL      0.034884
     32 H12        -2.1810    7.3060   -0.2530 hc        1 MOL      0.037049
     33 H13        -0.4760    7.1980   -0.7480 hc        1 MOL      0.037049
     34 H14         0.2210    7.3910    1.6290 hc        1 MOL      0.002812
     35 H15        -1.3100    6.7780    2.1700 hc        1 MOL      0.002812
     36 H16        -2.1890    9.0910    1.0090 hx        1 MOL      0.084025
     37 H17        -0.5170    9.4230    0.7970 hx        1 MOL      0.084025
     38 H18        -2.0130    9.2060    3.4140 hn        1 MOL      0.304788
     39 H19        -0.4600    9.3840    3.4060 hn        1 MOL      0.304788
     40 H20        -1.4500   10.4790    2.8830 hn        1 MOL      0.304788
     41 N4         -3.4440    3.6240   -1.6200 n         1 MOL     -0.174140
     42 C13        -4.4200    3.5430   -2.7510 c3        1 MOL      0.022280
     43 C14        -5.6850    2.8620   -2.2560 c         1 MOL      0.421768
     44 O6         -6.6790    2.9760   -2.9790 o         1 MOL     -0.536580
     45 C15        -3.8250    3.0180   -4.0400 c3        1 MOL     -0.254622
     46 C16        -3.0210    1.6960   -3.9170 c         1 MOL      0.751461
     47 O7         -3.0800    0.9950   -2.8240 o         1 MOL     -0.672495
     48 O8         -2.3130    1.3740   -4.8880 o         1 MOL     -0.672495
     49 H21        -2.7260    2.9040   -1.6290 hn        1 MOL      0.140235
     50 H22        -4.7330    4.5700   -2.9810 h1        1 MOL      0.086614
     51 H23        -3.1130    3.7620   -4.3960 hc        1 MOL      0.072704
     52 H24        -4.6010    2.8580   -4.7900 hc        1 MOL      0.072704
     53 N5         -5.6830    2.2530   -1.0370 n         1 MOL     -0.024251
     54 C17        -6.9280    1.7400   -0.4460 c3        1 MOL     -0.216206
     55 C18        -7.3800    0.3390   -0.8200 c         1 MOL      0.579758
     56 O9         -8.6020    0.0620   -0.8440 o         1 MOL     -0.600574
     57 H25        -4.8900    2.2870   -0.4040 hn        1 MOL      0.093599
     58 H26        -7.7560    2.4010   -0.7270 h1        1 MOL      0.098262
     59 H27        -6.8440    1.7110    0.6450 h1        1 MOL      0.098262
     60 N6         -6.4520   -0.5300   -1.2520 n         1 MOL     -0.135956
     61 C19        -6.7350   -1.7240   -2.0020 c3        1 MOL     -0.090916
     62 C20        -6.7800   -2.9620   -1.0700 c         1 MOL      0.438720
     63 O10        -6.7990   -4.0850   -1.4920 o         1 MOL     -0.508815
     64 C21        -5.7390   -1.9090   -3.1220 c3        1 MOL     -0.249996
     65 C22        -4.2830   -2.2150   -2.6450 c         1 MOL      0.648506
     66 O11        -3.9390   -2.3520   -1.4710 o         1 MOL     -0.638962
     67 O12        -3.4560   -2.2030   -3.5940 o         1 MOL     -0.638962
     68 H28        -5.5090   -0.1910   -1.1990 hn        1 MOL      0.041193
     69 H29        -7.6910   -1.7180   -2.5250 h1        1 MOL      0.121499
     70 H30        -5.8020   -1.0290   -3.7650 hc        1 MOL      0.107307
     71 H31        -6.0290   -2.7840   -3.7090 hc        1 MOL      0.107307
     72 N7         -6.5460   -2.7850    0.2540 n         1 MOL     -0.266152
     73 C23        -6.4440   -3.8120    1.2540 c3        1 MOL     -0.291572
     74 C24        -5.1720   -4.6620    1.4090 c         1 MOL      0.575462
     75 O13        -5.0970   -5.6150    2.1650 o         1 MOL     -0.574356
     76 H32        -6.2260   -1.8710    0.5300 hn        1 MOL      0.233950
     77 H33        -7.2840   -4.4660    1.0310 h1        1 MOL      0.136633
     78 H34        -6.6900   -3.3160    2.1910 h1        1 MOL      0.136633
     79 N8         -4.0580   -4.1980    0.7320 n         1 MOL     -0.154924
     80 C25        -2.7030   -4.6770    0.8360 c3        1 MOL     -0.356287
     81 C26        -1.6790   -3.6180    1.1330 c         1 MOL      0.776732
     82 O14        -1.8000   -2.4340    0.8240 o         1 MOL     -0.582202
     83 C27        -2.3140   -5.4140   -0.4620 c3        1 MOL      0.594373
     84 C28        -2.8450   -6.8810   -0.4990 c3        1 MOL     -0.258087
     85 O15        -2.7070   -4.7290   -1.6100 oh        1 MOL     -0.773316
     86 H35        -4.1600   -3.4500    0.0610 hn        1 MOL      0.144574
     87 H36        -2.6780   -5.3510    1.6850 h1        1 MOL      0.117016
     88 H37        -1.2440   -5.5770   -0.4060 h1        1 MOL     -0.061373
     89 H38        -3.1910   -3.9020   -1.5780 ho        1 MOL      0.540063
     90 H39        -3.9250   -6.9190   -0.3610 hc        1 MOL      0.055896
     91 H40        -2.6970   -7.3500   -1.4820 hc        1 MOL      0.055896
     92 H41        -2.3030   -7.5500    0.1680 hc        1 MOL      0.055896
     93 N9         -0.5300   -4.0540    1.7130 n         1 MOL     -0.695683
     94 C29         0.6850   -3.1590    1.9470 c3        1 MOL      0.094271
     95 C30         1.9700   -3.6660    1.1230 c         1 MOL      0.557581
     96 O16         2.2800   -4.8340    1.0440 o         1 MOL     -0.534991
     97 C31         0.9570   -3.0530    3.4700 c3        1 MOL      0.015607
     98 C32        -0.0710   -2.0830    4.1160 c3        1 MOL      0.027008
     99 C33         2.3530   -2.5030    3.9280 c3        1 MOL     -0.071110
    100 C34         0.0840   -1.8220    5.6290 c3        1 MOL     -0.291994
    101 H42        -0.5570   -4.9040    2.2570 hn        1 MOL      0.322300
    102 H43         0.4830   -2.1530    1.5700 h1        1 MOL      0.142807
    103 H44         0.9880   -4.0410    3.9160 hc        1 MOL      0.042940
    104 H45        -1.0580   -2.5150    3.9430 hc        1 MOL      0.028621
    105 H46         0.0080   -1.1480    3.5660 hc        1 MOL      0.028621
    106 H47         2.5730   -2.7950    4.9530 hc        1 MOL      0.010755
    107 H48         3.1180   -3.0440    3.3710 hc        1 MOL      0.010755
    108 H49         2.3830   -1.4160    3.8370 hc        1 MOL      0.010755
    109 H50         0.5850   -2.6210    6.1850 hc        1 MOL      0.075134
    110 H51         0.7950   -0.9970    5.6360 hc        1 MOL      0.075134
    111 H52        -0.8580   -1.5860    6.1280 hc        1 MOL      0.075134
    112 N10         2.7560   -2.7280    0.5130 n         1 MOL     -0.095183
    113 C35         3.8740   -2.9080   -0.4450 c3        1 MOL     -0.062638
    114 C36         5.2840   -2.6580    0.1710 c         1 MOL      0.434336
    115 O17         5.3810   -2.1180    1.2060 o         1 MOL     -0.358547
    116 C37         3.7350   -1.9970   -1.6820 c3        1 MOL      0.176599
    117 C38         2.2840   -2.1000   -2.2470 c3        1 MOL     -0.407546
    118 O18         4.1060   -0.6970   -1.5220 oh        1 MOL     -0.296613
    119 H53         2.5960   -1.7780    0.8130 hn        1 MOL     -0.184608
    120 H54         3.7900   -3.9480   -0.7560 h1        1 MOL      0.066356
    121 H55         4.3850   -2.4460   -2.4360 h1        1 MOL      0.004868
    122 H56         3.6320   -0.2430   -2.2360 ho        1 MOL      0.316462
    123 H57         2.4390   -1.9360   -3.3160 hc        1 MOL      0.130745
    124 H58         2.0310   -3.1560   -2.2270 hc        1 MOL      0.130745
    125 H59         1.5420   -1.4530   -1.7820 hc        1 MOL      0.130745
    126 N11         6.3510   -2.9100   -0.5830 n         1 MOL     -0.351979
    127 C39         7.6310   -2.3480   -0.2270 c3        1 MOL     -0.084197
    128 C40         7.7280   -0.9070    0.0830 c         1 MOL      0.384105
    129 O19         8.5630   -0.4260    0.8420 o         1 MOL     -0.511557
    130 C41         8.7740   -2.5420   -1.3480 c3        1 MOL      0.166374
    131 C42         9.1430   -4.0060   -1.7410 c3        1 MOL     -0.221210
    132 O20         8.2960   -2.0130   -2.5620 oh        1 MOL     -0.658330
    133 H60         6.1410   -3.1110   -1.5500 hn        1 MOL      0.280082
    134 H61         7.9590   -2.9490    0.6160 h1        1 MOL      0.140876
    135 H62         9.7060   -2.0770   -1.0240 h1        1 MOL      0.080861
    136 H63         8.8430   -2.4390   -3.2240 ho        1 MOL      0.423159
    137 H64         9.6440   -4.5000   -0.9090 hc        1 MOL      0.071156
    138 H65         8.2110   -4.5720   -1.8450 hc        1 MOL      0.071156
    139 H66         9.8220   -4.0280   -2.5850 hc        1 MOL      0.071156
    140 N12         6.9270   -0.0860   -0.6460 n         1 MOL     -0.054275
    141 C43         6.9300    1.3760   -0.4660 c3        1 MOL      0.034246
    142 C44         6.0780    1.7760    0.6820 c         1 MOL      0.459540
    143 O21         6.6180    2.3990    1.5650 o         1 MOL     -0.526147
    144 C45         6.7090    2.2700   -1.7200 c3        1 MOL     -0.132370
    145 C46         7.8630    2.0980   -2.7920 c3        1 MOL      0.172642
    146 C47         8.2450    3.3850   -3.4690 c3        1 MOL     -0.061111
    147 C48         9.3140    3.1610   -4.5680 c3        1 MOL     -0.139425
    148 N13         8.6470    2.5660   -5.7580 n4        1 MOL     -0.309413
    149 H67         6.2780   -0.4960   -1.2940 hn        1 MOL      0.066725
    150 H68         7.8830    1.6600   -0.0090 h1        1 MOL      0.098761
    151 H69         6.8890    3.2640   -1.3320 hc        1 MOL      0.024806
    152 H70         5.7010    2.1480   -2.1320 hc        1 MOL      0.024806
    153 H71         7.5920    1.3810   -3.5650 hc        1 MOL     -0.037469
    154 H72         8.6380    1.6470   -2.1760 hc        1 MOL     -0.037469
    155 H73         8.6160    4.0440   -2.6720 hc        1 MOL      0.063152
    156 H74         7.3310    3.8150   -3.8770 hc        1 MOL      0.063152
    157 H75        10.1280    2.5190   -4.2410 hx        1 MOL      0.144372
    158 H76         9.7100    4.1320   -4.8670 hx        1 MOL      0.144372
    159 H77         8.1490    1.6930   -5.6390 hn        1 MOL      0.286671
    160 H78         7.9650    3.2030   -6.1650 hn        1 MOL      0.286671
    161 H79         9.3570    2.3910   -6.4520 hn        1 MOL      0.286671
    162 N14         4.8840    1.2320    0.8210 n         1 MOL     -0.233156
    163 C49         3.9330    1.5240    1.9260 c3        1 MOL     -0.238062
    164 C50         4.3940    0.9290    3.3020 c         1 MOL      0.458419
    165 O22         4.1360    1.5650    4.3660 o         1 MOL     -0.548171
    166 C51         2.5150    0.8470    1.5490 c3        1 MOL      0.034788
    167 C52         1.7610    1.5050    0.4130 c3        1 MOL      0.197900
    168 C53         0.4060    0.8160    0.1330 c         1 MOL      0.689197
    169 O23         0.2280   -0.4060    0.2070 o         1 MOL     -0.783003
    170 O24        -0.4810    1.5180   -0.4550 o         1 MOL     -0.783003
    171 H80         4.6870    0.5840    0.0770 hn        1 MOL      0.121516
    172 H81         3.7620    2.5730    2.1750 h1        1 MOL      0.146003
    173 H82         1.9190    0.7800    2.4530 hc        1 MOL      0.096812
    174 H83         2.6900   -0.1920    1.2560 hc        1 MOL      0.096812
    175 H84         2.4010    1.5370   -0.4720 hc        1 MOL     -0.070987
    176 H85         1.6190    2.5330    0.7480 hc        1 MOL     -0.070987
    177 N15         5.1290   -0.2040    3.2750 n         1 MOL     -0.003759
    178 C54         5.8280   -0.7310    4.4250 c3        1 MOL     -0.199281
    179 H86         6.4610   -1.5620    4.1150 h1        1 MOL      0.078680
    180 H87         6.4460    0.0520    4.8650 h1        1 MOL      0.078680
    181 H88         5.1050   -1.0800    5.1620 h1        1 MOL      0.078680
    182 H89         5.2690   -0.6450    2.3780 hn        1 MOL      0.092750
    183 Ca1        -1.8630   -0.6450   -1.2760 Ca        1 MOL      1.794447
    184 O25        -0.6450   -2.8140   -2.0080 oh        1 MOL     -0.930614
    185 H90        -1.1440   -3.6200   -2.0670 ho        1 MOL      0.410367
    186 H91         0.0350   -2.8900   -2.6840 ho        1 MOL      0.410367
    187 O26        -0.6280   -0.3710   -3.9010 oh        1 MOL     -0.930614
    188 H92        -1.3040    0.1800   -4.2870 ho        1 MOL      0.410367
    189 H93         0.0220   -0.5010   -4.5990 ho        1 MOL      0.410367
@<TRIPOS>BOND
     1    1    2 1   
     2    1    4 1   
     3    1    5 1   
     4    1    6 1   
     5    2    3 2   
     6    2    7 1   
     7    7    8 1   
     8    7   15 1   
     9    8    9 1   
    10    8   11 1   
    11    8   16 1   
    12    9   10 2   
    13    9   19 1   
    14   11   12 1   
    15   11   17 1   
    16   11   18 1   
    17   12   13 1   
    18   12   14 1   
    19   19   20 1   
    20   19   28 1   
    21   20   21 1   
    22   20   23 1   
    23   20   29 1   
    24   21   22 2   
    25   21   41 1   
    26   23   24 1   
    27   23   30 1   
    28   23   31 1   
    29   24   25 1   
    30   24   32 1   
    31   24   33 1   
    32   25   26 1   
    33   25   34 1   
    34   25   35 1   
    35   26   27 1   
    36   26   36 1   
    37   26   37 1   
    38   27   38 1   
    39   27   39 1   
    40   27   40 1   
    41   41   42 1   
    42   41   49 1   
    43   42   43 1   
    44   42   45 1   
    45   42   50 1   
    46   43   44 2   
    47   43   53 1   
    48   45   46 1   
    49   45   51 1   
    50   45   52 1   
    51   46   47 1   
    52   46   48 1   
    53   53   54 1   
    54   53   57 1   
    55   54   55 1   
    56   54   58 1   
    57   54   59 1   
    58   55   56 2   
    59   55   60 1   
    60   60   61 1   
    61   60   68 1   
    62   61   62 1   
    63   61   64 1   
    64   61   69 1   
    65   62   63 2   
    66   62   72 1   
    67   64   65 1   
    68   64   70 1   
    69   64   71 1   
    70   65   66 1   
    71   65   67 1   
    72   72   73 1   
    73   72   76 1   
    74   73   74 1   
    75   73   77 1   
    76   73   78 1   
    77   74   75 2   
    78   74   79 1   
    79   79   80 1   
    80   79   86 1   
    81   80   81 1   
    82   80   83 1   
    83   80   87 1   
    84   81   82 2   
    85   81   93 1   
    86   83   84 1   
    87   83   85 1   
    88   83   88 1   
    89   84   90 1   
    90   84   91 1   
    91   84   92 1   
    92   85   89 1   
    93   93   94 1   
    94   93  101 1   
    95   94   95 1   
    96   94   97 1   
    97   94  102 1   
    98   95   96 2   
    99   95  112 1   
   100   97   98 1   
   101   97   99 1   
   102   97  103 1   
   103   98  100 1   
   104   98  104 1   
   105   98  105 1   
   106   99  106 1   
   107   99  107 1   
   108   99  108 1   
   109  100  109 1   
   110  100  110 1   
   111  100  111 1   
   112  112  113 1   
   113  112  119 1   
   114  113  114 1   
   115  113  116 1   
   116  113  120 1   
   117  114  115 2   
   118  114  126 1   
   119  116  117 1   
   120  116  118 1   
   121  116  121 1   
   122  117  123 1   
   123  117  124 1   
   124  117  125 1   
   125  118  122 1   
   126  126  127 1   
   127  126  133 1   
   128  127  128 1   
   129  127  130 1   
   130  127  134 1   
   131  128  129 2   
   132  128  140 1   
   133  130  131 1   
   134  130  132 1   
   135  130  135 1   
   136  131  137 1   
   137  131  138 1   
   138  131  139 1   
   139  132  136 1   
   140  140  141 1   
   141  140  149 1   
   142  141  142 1   
   143  141  144 1   
   144  141  150 1   
   145  142  143 2   
   146  142  162 1   
   147  144  145 1   
   148  144  151 1   
   149  144  152 1   
   150  145  146 1   
   151  145  153 1   
   152  145  154 1   
   153  146  147 1   
   154  146  155 1   
   155  146  156 1   
   156  147  148 1   
   157  147  157 1   
   158  147  158 1   
   159  148  159 1   
   160  148  160 1   
   161  148  161 1   
   162  162  163 1   
   163  162  171 1   
   164  163  164 1   
   165  163  166 1   
   166  163  172 1   
   167  164  165 2   
   168  164  177 1   
   169  166  167 1   
   170  166  173 1   
   171  166  174 1   
   172  167  168 1   
   173  167  175 1   
   174  167  176 1   
   175  168  169 1   
   176  168  170 1   
   177  177  178 1   
   178  177  182 1   
   179  178  179 1   
   180  178  180 1   
   181  178  181 1   
   182  184  185 1   
   183  184  186 1   
   184  187  188 1   
   185  187  189 1   
@<TRIPOS>SUBSTRUCTURE
     1 MOL         1 TEMP              0 ****  ****    0 ROOT
