@<TRIPOS>MOLECULE
MOL
  186   183     1     0     0
SMALL
resp


@<TRIPOS>ATOM
      1 C1          1.4520    4.5710   -4.4640 c3        1 MOL     -0.367743
      2 C2          1.6540    3.7380   -3.2320 c         1 MOL      0.664845
      3 O1          1.0260    4.0310   -2.2350 o         1 MOL     -0.534441
      4 H1          2.1540    4.2550   -5.2350 hc        1 MOL      0.087443
      5 H2          0.4320    4.4430   -4.8270 hc        1 MOL      0.087443
      6 H3          1.6230    5.6210   -4.2250 hc        1 MOL      0.087443
      7 N1          2.7490    2.9820   -3.2220 n         1 MOL     -0.624481
      8 C3          3.0840    2.2140   -2.0200 c3        1 MOL      0.425783
      9 C4          3.7660    3.1720   -1.0170 c         1 MOL      0.133705
     10 O2          4.9160    3.5720   -1.2480 o         1 MOL     -0.517158
     11 C5          3.9840    1.0590   -2.4150 c3        1 MOL     -0.322655
     12 C6          4.4050    0.2690   -1.1240 c         1 MOL      0.670267
     13 O3          3.8400    0.4880   -0.0120 o         1 MOL     -0.628893
     14 O4          5.3460   -0.5720   -1.2170 o         1 MOL     -0.628893
     15 H4          3.3580    2.8120   -4.0120 hn        1 MOL      0.333217
     16 H5          2.1720    1.7970   -1.6090 h1        1 MOL     -0.055660
     17 H6          4.9070    1.4070   -2.8630 hc        1 MOL      0.077589
     18 H7          3.3580    0.4670   -3.0840 hc        1 MOL      0.077589
     19 N2          3.0140    3.6200    0.0150 n         1 MOL     -0.059379
     20 C7          3.5290    4.6290    0.9810 c3        1 MOL     -0.044985
     21 C8          4.1350    3.8860    2.1660 c         1 MOL      0.455356
     22 O5          4.5560    4.6020    3.0940 o         1 MOL     -0.553302
     23 C9          2.4450    5.6010    1.4100 c3        1 MOL     -0.053463
     24 C10         1.5950    6.3450    0.3950 c3        1 MOL      0.081614
     25 C11         2.3980    7.3480   -0.4110 c3        1 MOL     -0.142018
     26 C12         3.1800    6.7700   -1.5960 c3        1 MOL      0.038325
     27 N3          4.4660    7.5460   -1.8140 n4        1 MOL     -0.461110
     28 H8          2.0550    3.3160    0.1140 hn        1 MOL      0.226488
     29 H9          4.2970    5.1950    0.4540 h1        1 MOL      0.075868
     30 H10         2.9670    6.3380    2.0220 hc        1 MOL      0.036185
     31 H11         1.8090    5.1140    2.1500 hc        1 MOL      0.036185
     32 H12         0.8410    6.8950    0.9500 hc        1 MOL      0.024148
     33 H13         1.0430    5.6590   -0.2480 hc        1 MOL      0.024148
     34 H14         3.1150    7.7660    0.3070 hc        1 MOL      0.042468
     35 H15         1.6800    8.0980   -0.7510 hc        1 MOL      0.042468
     36 H16         2.5520    6.9610   -2.4710 hx        1 MOL      0.104828
     37 H17         3.3980    5.7020   -1.5290 hx        1 MOL      0.104828
     38 H18         4.8250    7.3460   -2.7380 hn        1 MOL      0.347583
     39 H19         4.2070    8.5180   -1.9100 hn        1 MOL      0.347583
     40 H20         5.1660    7.3910   -1.0920 hn        1 MOL      0.347583
     41 N4          4.3000    2.5650    2.2360 n         1 MOL     -0.225981
     42 C13         5.0180    1.9190    3.3560 c3        1 MOL     -0.028984
     43 C14         6.1940    0.8980    3.0080 c         1 MOL      0.499053
     44 O6          6.9260    0.4720    3.9370 o         1 MOL     -0.528362
     45 C15         3.9810    1.3220    4.3340 c3        1 MOL     -0.064639
     46 C16         3.0520    0.4120    3.6060 c         1 MOL      0.757351
     47 O7          3.5460   -0.4740    2.8720 o         1 MOL     -0.728244
     48 O8          1.8190    0.4750    3.7490 o         1 MOL     -0.728244
     49 H21         4.0630    1.8580    1.5560 hn        1 MOL      0.089298
     50 H22         5.5280    2.7180    3.8900 h1        1 MOL      0.086841
     51 H23         3.4900    2.1170    4.8920 hc        1 MOL      0.023335
     52 H24         4.5420    0.7610    5.0770 hc        1 MOL      0.023335
     53 N5          6.4560    0.7160    1.7130 n         1 MOL     -0.515252
     54 C17         7.5980   -0.0960    1.3150 c3        1 MOL      0.024895
     55 C18         7.4150   -1.6360    1.2330 c         1 MOL      0.447198
     56 O9          8.4050   -2.3190    1.1280 o         1 MOL     -0.572115
     57 H25         5.7160    1.0450    1.1070 hn        1 MOL      0.389909
     58 H26         8.5180    0.1220    1.8610 h1        1 MOL      0.071565
     59 H27         7.8430    0.1730    0.2870 h1        1 MOL      0.071565
     60 N6          6.1820   -2.1670    1.4060 n         1 MOL     -0.075961
     61 C19         5.7590   -3.5630    1.5730 c3        1 MOL     -0.196805
     62 C20         5.5490   -4.3780    0.2500 c         1 MOL      0.523650
     63 O10         5.5140   -5.6040    0.3970 o         1 MOL     -0.507069
     64 C21         4.6070   -3.8180    2.5750 c3        1 MOL     -0.174753
     65 C22         3.2010   -3.4000    2.1200 c         1 MOL      0.851636
     66 O11         2.1590   -3.5630    2.8060 o         1 MOL     -0.760234
     67 O12         3.1260   -2.8090    1.0020 o         1 MOL     -0.760234
     68 H28         5.4330   -1.4940    1.4730 hn        1 MOL      0.156762
     69 H29         6.6060   -4.0340    2.0760 h1        1 MOL      0.129673
     70 H30         4.8370   -3.4490    3.5710 hc        1 MOL      0.063160
     71 H31         4.4870   -4.8940    2.5910 hc        1 MOL      0.063160
     72 N7          5.5810   -3.6680   -0.9380 n         1 MOL     -0.325824
     73 C23         5.3610   -4.3560   -2.1710 c3        1 MOL     -0.164965
     74 C24         3.9680   -4.6780   -2.4940 c         1 MOL      0.630902
     75 O13         3.7560   -5.4360   -3.4310 o         1 MOL     -0.595223
     76 H32         5.5500   -2.6640   -0.8500 hn        1 MOL      0.244383
     77 H33         5.8960   -5.2920   -2.0720 h1        1 MOL      0.102748
     78 H34         5.7280   -3.8010   -3.0360 h1        1 MOL      0.102748
     79 N8          2.9980   -4.0380   -1.7890 n         1 MOL     -0.464133
     80 C25         1.6280   -4.4740   -1.8140 c3        1 MOL      0.015148
     81 C26         0.7070   -3.2280   -1.7620 c         1 MOL      0.603804
     82 O14         0.6930   -2.5550   -0.7460 o         1 MOL     -0.687738
     83 C27         1.2660   -5.4020   -0.5680 c3        1 MOL      0.476373
     84 C28        -0.2750   -5.5730   -0.6600 c3        1 MOL     -0.714948
     85 O15         1.9150   -6.6250   -0.7430 oh        1 MOL     -0.590017
     86 H35         3.2730   -3.5580   -0.9390 hn        1 MOL      0.251475
     87 H36         1.4570   -5.0730   -2.7050 h1        1 MOL      0.048216
     88 H37         1.5370   -5.0060    0.4140 h1        1 MOL      0.078336
     89 H38         1.3740   -6.9830   -1.4550 ho        1 MOL      0.373561
     90 H39        -0.7950   -4.6710   -0.3190 hc        1 MOL      0.168901
     91 H40        -0.6190   -5.7420   -1.6810 hc        1 MOL      0.168901
     92 H41        -0.6380   -6.3000    0.0670 hc        1 MOL      0.168901
     93 N9         -0.0800   -3.0050   -2.8150 n         1 MOL     -0.566682
     94 C29        -1.0410   -1.9580   -2.9380 c3        1 MOL     -0.040086
     95 C30        -2.4280   -2.4860   -2.4810 c         1 MOL      0.741739
     96 O16        -2.8390   -3.5330   -2.9940 o         1 MOL     -0.605028
     97 C31        -1.0460   -1.3090   -4.3870 c3        1 MOL     -0.042705
     98 C32         0.1890   -0.3610   -4.3580 c3        1 MOL      0.259598
     99 C33        -2.3490   -0.5870   -4.6320 c3        1 MOL     -0.130324
    100 C34         0.3320    0.1980   -5.7980 c3        1 MOL     -0.223399
    101 H42         0.0100   -3.6800   -3.5640 hn        1 MOL      0.309292
    102 H43        -0.8460   -1.1320   -2.2530 h1        1 MOL      0.141412
    103 H44        -0.8930   -2.0010   -5.2060 hc        1 MOL      0.079663
    104 H45         1.1230   -0.8790   -4.1350 hc        1 MOL     -0.020341
    105 H46         0.1660    0.4450   -3.6220 hc        1 MOL     -0.020341
    106 H47        -3.1870   -1.2860   -4.5540 hc        1 MOL      0.025978
    107 H48        -2.5260    0.3200   -4.0530 hc        1 MOL      0.025978
    108 H49        -2.3480   -0.2580   -5.6760 hc        1 MOL      0.025978
    109 H50         1.3370    0.6350   -5.8610 hc        1 MOL      0.037046
    110 H51         0.3520   -0.5970   -6.5430 hc        1 MOL      0.037046
    111 H52        -0.3710    1.0160   -5.9500 hc        1 MOL      0.037046
    112 N10        -3.1840   -1.8610   -1.5950 n         1 MOL     -0.374638
    113 C35        -4.5490   -2.2160   -1.1460 c3        1 MOL     -0.122136
    114 C36        -5.5710   -1.0750   -1.3750 c         1 MOL      0.557748
    115 O17        -5.1640    0.1020   -1.5750 o         1 MOL     -0.473264
    116 C37        -4.5210   -2.4990    0.3570 c3        1 MOL      0.394121
    117 C38        -3.6390   -3.6900    0.6550 c3        1 MOL     -0.492795
    118 O18        -4.1480   -1.3410    1.1210 oh        1 MOL     -0.612596
    119 H53        -2.6670   -1.1600   -1.0770 hn        1 MOL      0.255078
    120 H54        -4.8670   -3.1170   -1.6760 h1        1 MOL      0.094732
    121 H55        -5.5070   -2.7260    0.7730 h1        1 MOL     -0.051927
    122 H56        -4.2590   -1.6350    2.0290 ho        1 MOL      0.389019
    123 H57        -4.2550   -4.2870    1.3310 hc        1 MOL      0.132728
    124 H58        -3.4880   -4.2550   -0.2700 hc        1 MOL      0.132728
    125 H59        -2.6940   -3.3850    1.1190 hc        1 MOL      0.132728
    126 N11        -6.8660   -1.3630   -1.3020 n         1 MOL     -0.367917
    127 C39        -7.9440   -0.3190   -1.3210 c3        1 MOL     -0.103879
    128 C40        -7.7360    0.8250   -0.2980 c         1 MOL      0.413286
    129 O19        -7.7560    1.9920   -0.6780 o         1 MOL     -0.483176
    130 C41        -9.3740   -0.8420   -1.0600 c3        1 MOL      0.187174
    131 C42        -9.7610   -1.8550   -2.1650 c3        1 MOL     -0.430657
    132 O20        -9.4920   -1.4820    0.2090 oh        1 MOL     -0.629221
    133 H60        -7.1150   -2.3020   -1.0020 hn        1 MOL      0.258165
    134 H61        -7.9690    0.1570   -2.3010 h1        1 MOL      0.150431
    135 H62       -10.0160    0.0380   -1.0740 h1        1 MOL      0.097945
    136 H63       -10.1080   -2.1990    0.0860 ho        1 MOL      0.422948
    137 H64        -9.6090   -1.6020   -3.2170 hc        1 MOL      0.132355
    138 H65        -9.2000   -2.7780   -1.9830 hc        1 MOL      0.132355
    139 H66       -10.8050   -2.1550   -2.1010 hc        1 MOL      0.132355
    140 N12        -7.5160    0.5420    0.9560 n         1 MOL     -0.189397
    141 C43        -6.9820    1.3800    2.0300 c3        1 MOL     -0.053041
    142 C44        -5.6970    2.2410    1.7010 c         1 MOL      0.487807
    143 O21        -5.6390    3.3530    2.1630 o         1 MOL     -0.528433
    144 C45        -6.7020    0.6490    3.3410 c3        1 MOL     -0.076436
    145 C46        -8.0100    0.3520    4.1600 c3        1 MOL      0.149812
    146 C47        -7.7610   -0.1730    5.5580 c3        1 MOL     -0.222571
    147 C48        -6.8340   -1.3860    5.7230 c3        1 MOL     -0.068797
    148 N13        -7.4830   -2.6120    5.2510 n4        1 MOL     -0.340589
    149 H67        -7.6740   -0.4310    1.1820 hn        1 MOL      0.212191
    150 H68        -7.8090    2.0650    2.2190 h1        1 MOL      0.100964
    151 H69        -6.0740    1.2280    4.0050 hc        1 MOL      0.041029
    152 H70        -6.1910   -0.2610    3.0160 hc        1 MOL      0.041029
    153 H71        -8.6730   -0.3540    3.6670 hc        1 MOL     -0.020963
    154 H72        -8.6500    1.2300    4.2830 hc        1 MOL     -0.020963
    155 H73        -8.6990   -0.4100    6.0480 hc        1 MOL      0.124297
    156 H74        -7.3840    0.6810    6.1260 hc        1 MOL      0.124297
    157 H75        -6.6180   -1.5030    6.7770 hx        1 MOL      0.122353
    158 H76        -5.8500   -1.3370    5.2500 hx        1 MOL      0.122353
    159 H77        -7.9840   -2.4270    4.3970 hn        1 MOL      0.284672
    160 H78        -6.7630   -3.2980    5.0500 hn        1 MOL      0.284672
    161 H79        -8.1260   -2.9960    5.9340 hn        1 MOL      0.284672
    162 N14        -4.8130    1.7760    0.8380 n         1 MOL     -0.105250
    163 C49        -3.6940    2.5110    0.3430 c3        1 MOL     -0.077732
    164 C50        -3.9860    3.4210   -0.8310 c         1 MOL      0.493299
    165 O22        -3.6010    4.6300   -0.8940 o         1 MOL     -0.571498
    166 C51        -2.5200    1.6130    0.0990 c3        1 MOL      0.040420
    167 C52        -1.2230    2.4470   -0.0370 c3        1 MOL     -0.048103
    168 C53         0.0410    1.5170    0.1300 c         1 MOL      0.758611
    169 O23         0.0140    0.3530   -0.3860 o         1 MOL     -0.764442
    170 O24         1.0600    1.9040    0.7480 o         1 MOL     -0.764442
    171 H80        -5.0740    0.8730    0.4520 hn        1 MOL     -0.036526
    172 H81        -3.4700    3.2260    1.1440 h1        1 MOL      0.108310
    173 H82        -2.5860    0.9680   -0.7770 hc        1 MOL     -0.007814
    174 H83        -2.4600    1.0780    1.0470 hc        1 MOL     -0.007814
    175 H84        -1.3840    3.2360    0.6980 hc        1 MOL      0.007543
    176 H85        -1.2100    2.9700   -0.9980 hc        1 MOL      0.007543
    177 N15        -4.6400    2.8970   -1.8460 n         1 MOL     -0.157186
    178 C54        -5.1650    3.6970   -2.9580 c3        1 MOL     -0.286996
    179 H86        -4.5710    3.5090   -3.8520 h1        1 MOL      0.114057
    180 H87        -6.2020    3.4220   -3.1470 h1        1 MOL      0.114057
    181 H88        -5.1100    4.7550   -2.7020 h1        1 MOL      0.114057
    182 H89        -4.9310    1.9370   -1.7290 hn        1 MOL      0.225576
    183 Ca1         1.6830   -0.7710    1.0700 Ca        1 MOL      1.754735
    184 O25        -0.3660   -1.6860    2.3830 oh        1 MOL     -0.848022
    185 H90        -0.8870   -1.4110    3.1360 ho        1 MOL      0.424620
    186 H91        -0.4540   -2.6400    2.3740 ho        1 MOL      0.424620
@<TRIPOS>BOND
     1    1    2 1   
     2    1    4 1   
     3    1    5 1   
     4    1    6 1   
     5    2    3 2   
     6    2    7 1   
     7    7    8 1   
     8    7   15 1   
     9    8    9 1   
    10    8   11 1   
    11    8   16 1   
    12    9   10 2   
    13    9   19 1   
    14   11   12 1   
    15   11   17 1   
    16   11   18 1   
    17   12   13 1   
    18   12   14 1   
    19   19   20 1   
    20   19   28 1   
    21   20   21 1   
    22   20   23 1   
    23   20   29 1   
    24   21   22 2   
    25   21   41 1   
    26   23   24 1   
    27   23   30 1   
    28   23   31 1   
    29   24   25 1   
    30   24   32 1   
    31   24   33 1   
    32   25   26 1   
    33   25   34 1   
    34   25   35 1   
    35   26   27 1   
    36   26   36 1   
    37   26   37 1   
    38   27   38 1   
    39   27   39 1   
    40   27   40 1   
    41   41   42 1   
    42   41   49 1   
    43   42   43 1   
    44   42   45 1   
    45   42   50 1   
    46   43   44 2   
    47   43   53 1   
    48   45   46 1   
    49   45   51 1   
    50   45   52 1   
    51   46   47 1   
    52   46   48 1   
    53   53   54 1   
    54   53   57 1   
    55   54   55 1   
    56   54   58 1   
    57   54   59 1   
    58   55   56 2   
    59   55   60 1   
    60   60   61 1   
    61   60   68 1   
    62   61   62 1   
    63   61   64 1   
    64   61   69 1   
    65   62   63 2   
    66   62   72 1   
    67   64   65 1   
    68   64   70 1   
    69   64   71 1   
    70   65   66 1   
    71   65   67 1   
    72   72   73 1   
    73   72   76 1   
    74   73   74 1   
    75   73   77 1   
    76   73   78 1   
    77   74   75 2   
    78   74   79 1   
    79   79   80 1   
    80   79   86 1   
    81   80   81 1   
    82   80   83 1   
    83   80   87 1   
    84   81   82 2   
    85   81   93 1   
    86   83   84 1   
    87   83   85 1   
    88   83   88 1   
    89   84   90 1   
    90   84   91 1   
    91   84   92 1   
    92   85   89 1   
    93   93   94 1   
    94   93  101 1   
    95   94   95 1   
    96   94   97 1   
    97   94  102 1   
    98   95   96 2   
    99   95  112 1   
   100   97   98 1   
   101   97   99 1   
   102   97  103 1   
   103   98  100 1   
   104   98  104 1   
   105   98  105 1   
   106   99  106 1   
   107   99  107 1   
   108   99  108 1   
   109  100  109 1   
   110  100  110 1   
   111  100  111 1   
   112  112  113 1   
   113  112  119 1   
   114  113  114 1   
   115  113  116 1   
   116  113  120 1   
   117  114  115 2   
   118  114  126 1   
   119  116  117 1   
   120  116  118 1   
   121  116  121 1   
   122  117  123 1   
   123  117  124 1   
   124  117  125 1   
   125  118  122 1   
   126  126  127 1   
   127  126  133 1   
   128  127  128 1   
   129  127  130 1   
   130  127  134 1   
   131  128  129 2   
   132  128  140 1   
   133  130  131 1   
   134  130  132 1   
   135  130  135 1   
   136  131  137 1   
   137  131  138 1   
   138  131  139 1   
   139  132  136 1   
   140  140  141 1   
   141  140  149 1   
   142  141  142 1   
   143  141  144 1   
   144  141  150 1   
   145  142  143 2   
   146  142  162 1   
   147  144  145 1   
   148  144  151 1   
   149  144  152 1   
   150  145  146 1   
   151  145  153 1   
   152  145  154 1   
   153  146  147 1   
   154  146  155 1   
   155  146  156 1   
   156  147  148 1   
   157  147  157 1   
   158  147  158 1   
   159  148  159 1   
   160  148  160 1   
   161  148  161 1   
   162  162  163 1   
   163  162  171 1   
   164  163  164 1   
   165  163  166 1   
   166  163  172 1   
   167  164  165 2   
   168  164  177 1   
   169  166  167 1   
   170  166  173 1   
   171  166  174 1   
   172  167  168 1   
   173  167  175 1   
   174  167  176 1   
   175  168  169 1   
   176  168  170 1   
   177  177  178 1   
   178  177  182 1   
   179  178  179 1   
   180  178  180 1   
   181  178  181 1   
   182  184  185 1   
   183  184  186 1   
@<TRIPOS>SUBSTRUCTURE
     1 MOL         1 TEMP              0 ****  ****    0 ROOT
