@<TRIPOS>MOLECULE
MOL
  179   176     1     0     0
SMALL
resp


@<TRIPOS>ATOM
      1 C1          1.7100    2.3720    6.9380 c3        1 MOL     -0.248475
      2 C2          1.5410    1.8660    5.5110 c         1 MOL      0.681089
      3 O1          2.4450    1.1610    4.9760 o         1 MOL     -0.579336
      4 H1          2.7060    2.1170    7.2980 hc        1 MOL      0.065994
      5 H2          1.5830    3.4540    6.9570 hc        1 MOL      0.065994
      6 H3          0.9620    1.9060    7.5800 hc        1 MOL      0.065994
      7 N1          0.4450    2.2010    4.8290 n         1 MOL     -0.613552
      8 C3          0.3240    2.1360    3.3530 c3        1 MOL      0.020896
      9 C4          0.8530    3.4800    2.7070 c         1 MOL      0.619744
     10 O2          0.4020    4.5460    3.1710 o         1 MOL     -0.544470
     11 C5         -1.1310    1.9130    2.8630 c3        1 MOL     -0.154989
     12 C6         -1.1310    1.5310    1.3760 c         1 MOL      0.584596
     13 O3         -2.2590    1.4340    0.7610 o         1 MOL     -0.648515
     14 O4         -0.0510    1.2760    0.8150 o         1 MOL     -0.648515
     15 H4         -0.3080    2.6660    5.3250 hn        1 MOL      0.334442
     16 H5          0.9260    1.3270    2.9450 h1        1 MOL      0.092679
     17 H6         -1.6770    2.8210    3.1160 hc        1 MOL      0.063303
     18 H7         -1.4360    1.0460    3.4410 hc        1 MOL      0.063303
     19 N2          1.5970    3.3960    1.5970 n         1 MOL     -0.370869
     20 C7          2.0470    4.5700    0.9130 c3        1 MOL     -0.177346
     21 C8          0.9610    5.4940    0.3170 c         1 MOL      0.507344
     22 O5          1.1290    6.6260    0.4410 o         1 MOL     -0.528556
     23 C9          2.9480    4.0910   -0.1460 c3        1 MOL      0.188450
     24 C10         3.7810    5.1860   -0.7950 c3        1 MOL     -0.200576
     25 C11         4.9240    4.5580   -1.6850 c3        1 MOL      0.024763
     26 C12         5.6750    5.7210   -2.2090 c3        1 MOL     -0.061228
     27 N3          6.6120    5.3080   -3.3070 n4        1 MOL     -0.246573
     28 H8          1.9160    2.4680    1.3620 hn        1 MOL      0.224709
     29 H9          2.6520    5.1670    1.6020 h1        1 MOL      0.119956
     30 H10         2.3810    3.6030   -0.9310 hc        1 MOL      0.019809
     31 H11         3.6920    3.3860    0.2290 hc        1 MOL      0.019809
     32 H12         4.1950    5.7500    0.0290 hc        1 MOL      0.062362
     33 H13         3.1810    5.8340   -1.4450 hc        1 MOL      0.062362
     34 H14         4.3520    3.9810   -2.4140 hc        1 MOL      0.051978
     35 H15         5.6710    3.9800   -1.1450 hc        1 MOL      0.051978
     36 H16         6.1860    6.2420   -1.4040 hx        1 MOL      0.110871
     37 H17         4.8960    6.3400   -2.6560 hx        1 MOL      0.110871
     38 H18         7.2380    4.5510   -3.0770 hn        1 MOL      0.294792
     39 H19         6.1170    4.8700   -4.0690 hn        1 MOL      0.294792
     40 H20         7.2930    6.0030   -3.5800 hn        1 MOL      0.294792
     41 N4         -0.0870    4.8790   -0.2870 n         1 MOL     -0.222563
     42 C13        -1.1100    5.5380   -1.0200 c3        1 MOL     -0.007234
     43 C14        -2.4790    5.2740   -0.3770 c         1 MOL      0.502521
     44 O6         -3.5050    5.7450   -0.8480 o         1 MOL     -0.549749
     45 C15        -1.0760    5.1800   -2.4910 c3        1 MOL     -0.129364
     46 C16        -1.3200    3.7060   -2.8680 c         1 MOL      0.727859
     47 O7         -1.6450    2.9220   -1.9700 o         1 MOL     -0.702136
     48 O8         -1.1040    3.3780   -4.0590 o         1 MOL     -0.702136
     49 H21        -0.0530    3.8710   -0.3530 hn        1 MOL      0.198279
     50 H22        -0.9840    6.6140   -0.9100 h1        1 MOL      0.095447
     51 H23        -0.0760    5.4180   -2.8660 hc        1 MOL      0.033737
     52 H24        -1.6660    5.8970   -3.0500 hc        1 MOL      0.033737
     53 N5         -2.5870    4.5580    0.7440 n         1 MOL     -0.286435
     54 C17        -3.8810    4.4730    1.5330 c3        1 MOL     -0.052569
     55 C18        -5.0200    3.8380    0.7560 c         1 MOL      0.467210
     56 O9         -6.2290    4.0030    1.0650 o         1 MOL     -0.592744
     57 H25        -1.7590    4.1440    1.1400 hn        1 MOL      0.163937
     58 H26        -4.2680    5.4380    1.8600 h1        1 MOL      0.085207
     59 H27        -3.6810    3.9010    2.4400 h1        1 MOL      0.085207
     60 N6         -4.7400    2.9810   -0.2060 n         1 MOL     -0.013176
     61 C19        -5.7700    2.5420   -1.1220 c3        1 MOL     -0.023451
     62 C20        -6.6670    1.3370   -0.6340 c         1 MOL      0.424873
     63 O10        -7.7330    1.1440   -1.2040 o         1 MOL     -0.521422
     64 C21        -5.0880    2.2390   -2.4870 c3        1 MOL     -0.210023
     65 C22        -4.7700    0.7910   -2.5560 c         1 MOL      0.604250
     66 N7         -5.1340    0.1120   -3.6530 n         1 MOL     -0.780636
     67 O11        -4.0280    0.2650   -1.7920 o         1 MOL     -0.516446
     68 H28        -3.7840    2.6630   -0.2520 hn        1 MOL     -0.038740
     69 H29        -6.4800    3.3270   -1.3760 h1        1 MOL      0.123846
     70 H30        -4.2050    2.8510   -2.7200 hc        1 MOL      0.101362
     71 H31        -5.8320    2.5310   -3.2220 hc        1 MOL      0.101362
     72 H32        -5.5420    0.5720   -4.4470 hn        1 MOL      0.360435
     73 H33        -4.7190   -0.8090   -3.7160 hn        1 MOL      0.360435
     74 N8         -6.3390    0.6310    0.4610 n         1 MOL     -0.190298
     75 C23        -6.9890   -0.5800    1.0410 c3        1 MOL     -0.136658
     76 C24        -6.1110   -1.7720    1.2700 c         1 MOL      0.522771
     77 O12        -6.5340   -2.8020    1.8410 o         1 MOL     -0.539460
     78 H34        -5.5480    0.9340    1.0160 hn        1 MOL      0.197295
     79 H35        -7.7690   -0.9120    0.3550 h1        1 MOL      0.106896
     80 H36        -7.4190   -0.3720    2.0200 h1        1 MOL      0.106896
     81 N9         -4.8640   -1.8030    0.7650 n         1 MOL     -0.516814
     82 C25        -3.9220   -2.9290    0.6540 c3        1 MOL      0.274577
     83 C26        -2.5200   -2.4480    0.8340 c         1 MOL      0.477515
     84 O13        -2.1600   -1.3850    0.2590 o         1 MOL     -0.556244
     85 C27        -4.1480   -3.6500   -0.6520 c3        1 MOL      0.063312
     86 C28        -5.4450   -4.4120   -0.6600 ca        1 MOL     -0.270007
     87 C29        -5.5760   -5.7310   -0.1550 ca        1 MOL      0.047712
     88 C30        -6.5730   -3.7640   -1.2160 ca        1 MOL      0.047712
     89 C31        -6.8540   -6.3510   -0.1930 ca        1 MOL     -0.437228
     90 C32        -7.8210   -4.3970   -1.3210 ca        1 MOL     -0.437228
     91 C33        -7.9400   -5.7010   -0.7140 ca        1 MOL      0.556427
     92 O14        -9.1750   -6.2570   -0.7250 oh        1 MOL     -0.560155
     93 H37        -4.6920   -0.9080    0.3310 hn        1 MOL      0.262139
     94 H38        -4.1150   -3.6480    1.4460 h1        1 MOL      0.050103
     95 H39        -3.2740   -4.2920   -0.7670 hc        1 MOL      0.021343
     96 H40        -4.2690   -2.9290   -1.4630 hc        1 MOL      0.021343
     97 H41        -4.6760   -6.1760    0.2580 ha        1 MOL      0.100834
     98 H42        -6.5450   -2.7540   -1.6000 ha        1 MOL      0.100834
     99 H43        -6.9630   -7.3380    0.2440 ha        1 MOL      0.184468
    100 H44        -8.7130   -3.9240   -1.6950 ha        1 MOL      0.184468
    101 H45        -9.8490   -5.6550   -1.0440 ho        1 MOL      0.386193
    102 N10        -1.6670   -3.2300    1.5300 n         1 MOL     -0.572217
    103 C34        -0.2090   -2.9190    1.6420 c3        1 MOL      0.200901
    104 C35         0.5210   -3.8580    0.7270 c         1 MOL      0.533827
    105 O15         0.1510   -5.0500    0.6630 o         1 MOL     -0.596412
    106 C36         0.3200   -3.0140    3.1470 c3        1 MOL     -0.034692
    107 C37        -0.4760   -1.8870    3.8950 c3        1 MOL      0.188274
    108 C38         1.8640   -2.8610    3.2460 c3        1 MOL     -0.290110
    109 C39        -0.3640   -2.0890    5.4020 c3        1 MOL     -0.329314
    110 H46        -1.9670   -4.0650    2.0090 hn        1 MOL      0.311393
    111 H47         0.0670   -1.9870    1.1540 h1        1 MOL     -0.033027
    112 H48         0.0210   -3.9630    3.5820 hc        1 MOL      0.046358
    113 H49        -1.5580   -1.8880    3.7640 hc        1 MOL      0.008117
    114 H50        -0.1710   -0.8940    3.5560 hc        1 MOL      0.008117
    115 H51         2.2850   -3.0300    4.2300 hc        1 MOL      0.082175
    116 H52         2.3850   -3.5860    2.6240 hc        1 MOL      0.082175
    117 H53         2.2740   -1.8770    3.0470 hc        1 MOL      0.082175
    118 H54        -0.7250   -3.0380    5.7960 hc        1 MOL      0.073927
    119 H55         0.6790   -2.1740    5.6970 hc        1 MOL      0.073927
    120 H56        -0.9070   -1.3680    6.0050 hc        1 MOL      0.073927
    121 N11         1.5740   -3.4730    0.0670 n         1 MOL     -0.220437
    122 C40         2.4300   -4.3860   -0.7060 c3        1 MOL     -0.129815
    123 C41         3.9390   -4.3270   -0.2620 c         1 MOL      0.525558
    124 O16         4.2370   -3.4310    0.5880 o         1 MOL     -0.466239
    125 C42         2.3140   -3.9800   -2.1850 c3        1 MOL     -0.023062
    126 O17         2.8350   -2.6980   -2.3550 oh        1 MOL     -0.513251
    127 H57         1.7560   -2.4750    0.0850 hn        1 MOL      0.273068
    128 H58         2.1220   -5.4270   -0.5910 h1        1 MOL      0.093686
    129 H59         1.2760   -4.0230   -2.5250 h1        1 MOL      0.079920
    130 H60         2.8780   -4.6290   -2.8530 h1        1 MOL      0.079920
    131 H61         2.2260   -2.0830   -1.9540 ho        1 MOL      0.325154
    132 N12         4.7810   -5.1180   -0.8010 n         1 MOL     -0.381219
    133 C43         6.1790   -5.2510   -0.4200 c3        1 MOL      0.138104
    134 C44         6.9770   -3.9340   -0.6840 c         1 MOL      0.515639
    135 O18         7.6290   -3.3750    0.1740 o         1 MOL     -0.500764
    136 C45         6.7350   -6.5400   -0.9360 c3        1 MOL     -0.448809
    137 H62         4.5250   -5.7600   -1.5340 hn        1 MOL      0.277790
    138 H63         6.1870   -5.2600    0.6720 h1        1 MOL      0.069859
    139 H64         6.7990   -6.5460   -2.0190 hc        1 MOL      0.136712
    140 H65         7.7670   -6.5010   -0.5780 hc        1 MOL      0.136712
    141 H66         6.1790   -7.3880   -0.5130 hc        1 MOL      0.136712
    142 N13         6.8940   -3.4440   -1.9220 n         1 MOL     -0.496086
    143 C46         7.4790   -2.1240   -2.2880 c3        1 MOL      0.190042
    144 C47         7.0670   -0.8850   -1.4770 c         1 MOL      0.262053
    145 O19         7.9160    0.0360   -1.3080 o         1 MOL     -0.507640
    146 C48         7.2450   -1.9420   -3.8280 c3        1 MOL     -0.396557
    147 H67         6.4130   -3.9790   -2.6340 hn        1 MOL      0.300746
    148 H68         8.5630   -2.1760   -2.1440 h1        1 MOL      0.081112
    149 H69         6.1660   -1.8600   -3.9640 hc        1 MOL      0.112476
    150 H70         7.7330   -0.9860   -4.0280 hc        1 MOL      0.112476
    151 H71         7.7490   -2.6800   -4.4580 hc        1 MOL      0.112476
    152 N14         5.8140   -0.9170   -0.9540 n         1 MOL      0.096496
    153 C49         5.2900    0.1240   -0.0580 c3        1 MOL     -0.239438
    154 C50         5.6120   -0.0920    1.4200 c         1 MOL      0.560804
    155 O20         5.8460    0.8610    2.1730 o         1 MOL     -0.553664
    156 C51         3.8250    0.0400   -0.1710 c3        1 MOL      0.065809
    157 C52         3.3550    0.3370   -1.5640 c3        1 MOL      0.163929
    158 C53         1.7850    0.3230   -1.6550 c         1 MOL      0.498085
    159 O21         1.2370   -0.7370   -1.4090 o         1 MOL     -0.623776
    160 O22         1.1940    1.3310   -1.9110 o         1 MOL     -0.623776
    161 H72         5.3160   -1.7630   -1.1750 hn        1 MOL      0.103255
    162 H73         5.7160    1.1010   -0.2960 h1        1 MOL      0.071894
    163 H74         3.4470    0.8210    0.4870 hc        1 MOL     -0.008794
    164 H75         3.4610   -0.9110    0.2320 hc        1 MOL     -0.008794
    165 H76         3.9000   -0.2940   -2.2560 hc        1 MOL     -0.098089
    166 H77         3.7990    1.2920   -1.8320 hc        1 MOL     -0.098089
    167 N15         5.7720   -1.3630    1.8040 n         1 MOL     -0.131385
    168 C54         6.3840   -1.6740    3.1020 c3        1 MOL     -0.294919
    169 H78         7.4630   -1.7660    2.9810 h1        1 MOL      0.116928
    170 H79         6.1650   -0.8740    3.8080 h1        1 MOL      0.116928
    171 H80         5.9800   -2.6130    3.4790 h1        1 MOL      0.116928
    172 H81         5.5680   -2.1340    1.1910 hn        1 MOL      0.119093
    173 Ca1        -1.2540    0.4070   -1.4400 Ca        1 MOL      1.726284
    174 O23        -1.8780   -1.9040   -2.6180 oh        1 MOL     -0.895653
    175 H82        -1.2090   -2.0750   -3.2870 ho        1 MOL      0.416360
    176 H83        -2.6920   -2.2450   -3.0050 ho        1 MOL      0.416360
    177 O24        -1.2830    0.5970   -4.0780 oh        1 MOL     -0.895653
    178 H84        -1.2470    0.0650   -4.8760 ho        1 MOL      0.416360
    179 H85        -1.1200    1.4840   -4.3780 ho        1 MOL      0.416360
@<TRIPOS>BOND
     1    1    2 1   
     2    1    4 1   
     3    1    5 1   
     4    1    6 1   
     5    2    3 2   
     6    2    7 1   
     7    7    8 1   
     8    7   15 1   
     9    8    9 1   
    10    8   11 1   
    11    8   16 1   
    12    9   10 2   
    13    9   19 1   
    14   11   12 1   
    15   11   17 1   
    16   11   18 1   
    17   12   13 1   
    18   12   14 1   
    19   19   20 1   
    20   19   28 1   
    21   20   21 1   
    22   20   23 1   
    23   20   29 1   
    24   21   22 2   
    25   21   41 1   
    26   23   24 1   
    27   23   30 1   
    28   23   31 1   
    29   24   25 1   
    30   24   32 1   
    31   24   33 1   
    32   25   26 1   
    33   25   34 1   
    34   25   35 1   
    35   26   27 1   
    36   26   36 1   
    37   26   37 1   
    38   27   38 1   
    39   27   39 1   
    40   27   40 1   
    41   41   42 1   
    42   41   49 1   
    43   42   43 1   
    44   42   45 1   
    45   42   50 1   
    46   43   44 2   
    47   43   53 1   
    48   45   46 1   
    49   45   51 1   
    50   45   52 1   
    51   46   47 1   
    52   46   48 1   
    53   53   54 1   
    54   53   57 1   
    55   54   55 1   
    56   54   58 1   
    57   54   59 1   
    58   55   56 2   
    59   55   60 1   
    60   60   61 1   
    61   60   68 1   
    62   61   62 1   
    63   61   64 1   
    64   61   69 1   
    65   62   63 2   
    66   62   74 1   
    67   64   65 1   
    68   64   70 1   
    69   64   71 1   
    70   65   66 1   
    71   65   67 2   
    72   66   72 1   
    73   66   73 1   
    74   74   75 1   
    75   74   78 1   
    76   75   76 1   
    77   75   79 1   
    78   75   80 1   
    79   76   77 2   
    80   76   81 1   
    81   81   82 1   
    82   81   93 1   
    83   82   83 1   
    84   82   85 1   
    85   82   94 1   
    86   83   84 2   
    87   83  102 1   
    88   85   86 1   
    89   85   95 1   
    90   85   96 1   
    91   86   87 ar  
    92   86   88 ar  
    93   87   89 ar  
    94   87   97 1   
    95   88   90 ar  
    96   88   98 1   
    97   89   91 ar  
    98   89   99 1   
    99   90   91 ar  
   100   90  100 1   
   101   91   92 1   
   102   92  101 1   
   103  102  103 1   
   104  102  110 1   
   105  103  104 1   
   106  103  106 1   
   107  103  111 1   
   108  104  105 2   
   109  104  121 1   
   110  106  107 1   
   111  106  108 1   
   112  106  112 1   
   113  107  109 1   
   114  107  113 1   
   115  107  114 1   
   116  108  115 1   
   117  108  116 1   
   118  108  117 1   
   119  109  118 1   
   120  109  119 1   
   121  109  120 1   
   122  121  122 1   
   123  121  127 1   
   124  122  123 1   
   125  122  125 1   
   126  122  128 1   
   127  123  124 2   
   128  123  132 1   
   129  125  126 1   
   130  125  129 1   
   131  125  130 1   
   132  126  131 1   
   133  132  133 1   
   134  132  137 1   
   135  133  134 1   
   136  133  136 1   
   137  133  138 1   
   138  134  135 2   
   139  134  142 1   
   140  136  139 1   
   141  136  140 1   
   142  136  141 1   
   143  142  143 1   
   144  142  147 1   
   145  143  144 1   
   146  143  146 1   
   147  143  148 1   
   148  144  145 2   
   149  144  152 1   
   150  146  149 1   
   151  146  150 1   
   152  146  151 1   
   153  152  153 1   
   154  152  161 1   
   155  153  154 1   
   156  153  156 1   
   157  153  162 1   
   158  154  155 2   
   159  154  167 1   
   160  156  157 1   
   161  156  163 1   
   162  156  164 1   
   163  157  158 1   
   164  157  165 1   
   165  157  166 1   
   166  158  159 1   
   167  158  160 1   
   168  167  168 1   
   169  167  172 1   
   170  168  169 1   
   171  168  170 1   
   172  168  171 1   
   173  174  175 1   
   174  174  176 1   
   175  177  178 1   
   176  177  179 1   
@<TRIPOS>SUBSTRUCTURE
     1 MOL         1 TEMP              0 ****  ****    0 ROOT
