@<TRIPOS>MOLECULE
MOL
  179   176     1     0     0
SMALL
resp


@<TRIPOS>ATOM
      1 C1         -2.7990   -2.6600    4.9740 c3        1 MOL     -0.353106
      2 C2         -1.9990   -2.6050    3.6560 c         1 MOL      0.698495
      3 O1         -2.5020   -2.5910    2.5270 o         1 MOL     -0.591590
      4 H1         -2.4790   -3.5240    5.5570 hc        1 MOL      0.096986
      5 H2         -2.6190   -1.7500    5.5470 hc        1 MOL      0.096986
      6 H3         -3.8620   -2.7460    4.7510 hc        1 MOL      0.096986
      7 N1         -0.6580   -2.3950    3.7780 n         1 MOL     -0.562967
      8 C3          0.2560   -2.4040    2.6250 c3        1 MOL      0.264925
      9 C4          0.1060   -3.7530    1.8750 c         1 MOL      0.266583
     10 O2          0.7730   -4.6960    2.2080 o         1 MOL     -0.543886
     11 C5          1.7220   -1.9970    3.0030 c3        1 MOL      0.001339
     12 C6          2.6880   -1.7680    1.8260 c         1 MOL      0.712003
     13 O3          2.3140   -1.5320    0.6410 o         1 MOL     -0.729454
     14 O4          3.9270   -1.7610    2.0800 o         1 MOL     -0.729454
     15 H4         -0.3180   -2.1740    4.6980 hn        1 MOL      0.297863
     16 H5          0.0060   -1.6310    1.9010 h1        1 MOL     -0.068830
     17 H6          2.1860   -2.6830    3.7090 hc        1 MOL      0.004715
     18 H7          1.6680   -1.0380    3.5300 hc        1 MOL      0.004715
     19 N2         -0.6550   -3.8830    0.7870 n         1 MOL     -0.056065
     20 C7         -0.8600   -5.0990   -0.0580 c3        1 MOL      0.145730
     21 C8          0.2560   -5.4870   -1.0170 c         1 MOL      0.306549
     22 O5          0.1750   -6.6140   -1.6100 o         1 MOL     -0.551178
     23 C9         -2.2270   -4.9840   -0.8070 c3        1 MOL     -0.052593
     24 C10        -3.4990   -4.9900    0.0360 c3        1 MOL     -0.009192
     25 C11        -3.4530   -6.0230    1.0910 c3        1 MOL     -0.058342
     26 C12        -3.3020   -7.4530    0.5650 c3        1 MOL      0.087443
     27 N3         -3.0700   -8.3370    1.7740 n4        1 MOL     -0.318478
     28 H8         -1.0730   -3.0190    0.4620 hn        1 MOL      0.191476
     29 H9         -0.8330   -5.9970    0.5570 h1        1 MOL      0.031041
     30 H10        -2.2960   -5.8580   -1.4430 hc        1 MOL      0.020394
     31 H11        -2.2870   -4.0040   -1.2960 hc        1 MOL      0.020394
     32 H12        -4.4090   -5.1540   -0.5480 hc        1 MOL      0.056610
     33 H13        -3.4640   -4.0160    0.5250 hc        1 MOL      0.056610
     34 H14        -4.4230   -5.9310    1.5950 hc        1 MOL      0.012842
     35 H15        -2.7080   -5.7780    1.8550 hc        1 MOL      0.012842
     36 H16        -2.3950   -7.4560   -0.0280 hx        1 MOL      0.067725
     37 H17        -4.1450   -7.8070   -0.0280 hx        1 MOL      0.067725
     38 H18        -3.0280   -9.3100    1.5000 hn        1 MOL      0.308248
     39 H19        -2.2800   -8.1300    2.3550 hn        1 MOL      0.308248
     40 H20        -3.8640   -8.2720    2.4040 hn        1 MOL      0.308248
     41 N4          1.3280   -4.7030   -1.2130 n         1 MOL     -0.206720
     42 C13         2.5130   -5.0350   -2.0440 c3        1 MOL      0.139447
     43 C14         3.8230   -4.8020   -1.3680 c         1 MOL      0.366383
     44 O6          4.8360   -4.7310   -2.0860 o         1 MOL     -0.468980
     45 C15         2.4440   -4.4410   -3.4490 c3        1 MOL     -0.244376
     46 C16         2.4600   -2.9410   -3.5940 c         1 MOL      0.767013
     47 O7          2.5850   -2.4110   -4.7380 o         1 MOL     -0.730201
     48 O8          2.2260   -2.2290   -2.6530 o         1 MOL     -0.730201
     49 H21         1.2810   -3.7600   -0.8590 hn        1 MOL      0.156430
     50 H22         2.4460   -6.1110   -2.2330 h1        1 MOL      0.079472
     51 H23         1.5480   -4.9020   -3.8800 hc        1 MOL      0.067224
     52 H24         3.3330   -4.8900   -3.9110 hc        1 MOL      0.067224
     53 N5          3.8530   -4.6060   -0.0000 n         1 MOL     -0.324850
     54 C17         5.1450   -4.4760    0.7220 c3        1 MOL     -0.172591
     55 C18         5.9720   -3.2480    0.3420 c         1 MOL      0.503231
     56 O9          7.0770   -3.1390    0.7990 o         1 MOL     -0.599059
     57 H25         3.0120   -4.6930    0.5430 hn        1 MOL      0.221075
     58 H26         5.7710   -5.3590    0.6600 h1        1 MOL      0.123445
     59 H27         4.9560   -4.2290    1.7660 h1        1 MOL      0.123445
     60 N6          5.4240   -2.2960   -0.3170 n         1 MOL     -0.089724
     61 C19         6.2240   -1.2280   -0.9910 c3        1 MOL     -0.327066
     62 C20         6.4720   -0.0110   -0.0700 c         1 MOL      0.470210
     63 O10         7.2300    0.8890   -0.4320 o         1 MOL     -0.528660
     64 C21         5.6740   -0.8750   -2.3900 c3        1 MOL      0.119307
     65 C22         4.7630    0.2760   -2.3500 c         1 MOL      0.335702
     66 N7          4.9050    1.3300   -3.1580 n         1 MOL     -0.632567
     67 O11         3.9390    0.2260   -1.4190 o         1 MOL     -0.346780
     68 H28         4.4340   -2.3740   -0.4480 hn        1 MOL      0.153364
     69 H29         7.2200   -1.6480   -1.1330 h1        1 MOL      0.183151
     70 H30         5.1220   -1.7280   -2.7790 hc        1 MOL      0.025137
     71 H31         6.5200   -0.7240   -3.0720 hc        1 MOL      0.025137
     72 H32         5.4440    1.1670   -3.9960 hn        1 MOL      0.341041
     73 H33         4.2920    2.1220   -3.1240 hn        1 MOL      0.341041
     74 N8          6.0060   -0.0460    1.1530 n         1 MOL     -0.093998
     75 C23         6.2580    0.9860    2.1620 c3        1 MOL     -0.542655
     76 C24         5.4310    2.2620    1.9610 c         1 MOL      0.657051
     77 O12         5.7220    3.2890    2.6190 o         1 MOL     -0.530419
     78 H34         5.3400   -0.7670    1.4010 hn        1 MOL      0.321486
     79 H35         7.3230    1.2240    2.0390 h1        1 MOL      0.191939
     80 H36         6.1520    0.5580    3.1560 h1        1 MOL      0.191939
     81 N9          4.3380    2.2150    1.1570 n         1 MOL     -0.321070
     82 C25         3.3370    3.2770    1.0860 c3        1 MOL      0.018922
     83 C26         1.8940    2.7480    0.9580 c         1 MOL      0.880893
     84 O13         1.7720    1.8980    0.0830 o         1 MOL     -0.762798
     85 C27         3.5630    4.1310   -0.1860 c3        1 MOL     -0.354812
     86 C28         4.6500    5.2090   -0.0030 ca        1 MOL      0.397642
     87 C29         5.8660    5.1570   -0.6910 ca        1 MOL     -0.404576
     88 C30         4.2870    6.3690    0.6990 ca        1 MOL     -0.404576
     89 C31         6.7260    6.3020   -0.6940 ca        1 MOL     -0.035421
     90 C32         5.1470    7.4700    0.6730 ca        1 MOL     -0.035421
     91 C33         6.3250    7.5110   -0.1030 ca        1 MOL      0.093707
     92 O14         7.1540    8.6150   -0.0720 oh        1 MOL     -0.425179
     93 H37         4.1070    1.3300    0.7190 hn        1 MOL      0.170892
     94 H38         3.3950    3.8580    2.0060 h1        1 MOL      0.030374
     95 H39         2.6440    4.6970   -0.2970 hc        1 MOL      0.097976
     96 H40         3.7950    3.5200   -1.0640 hc        1 MOL      0.097976
     97 H41         6.1620    4.2260   -1.1600 ha        1 MOL      0.184016
     98 H42         3.3280    6.3040    1.1930 ha        1 MOL      0.184016
     99 H43         7.7130    6.1430   -1.1220 ha        1 MOL      0.111764
    100 H44         4.9100    8.3480    1.2600 ha        1 MOL      0.111764
    101 H45         6.6370    9.4100    0.0340 ho        1 MOL      0.332969
    102 N10         0.9370    3.0470    1.8300 n         1 MOL     -0.744050
    103 C34        -0.5470    2.6990    1.7620 c3        1 MOL      0.049420
    104 C35        -1.3930    3.6480    0.9280 c         1 MOL      0.680448
    105 O15        -1.3710    4.8320    1.2020 o         1 MOL     -0.586242
    106 C36        -1.2650    2.5440    3.1300 c3        1 MOL      0.126568
    107 C37        -0.2640    2.0200    4.2420 c3        1 MOL      0.101812
    108 C38        -2.4040    1.5280    2.9510 c3        1 MOL     -0.259268
    109 C39        -0.9190    2.1980    5.6320 c3        1 MOL     -0.242502
    110 H46         1.0570    3.6450    2.6310 hn        1 MOL      0.353719
    111 H47        -0.5710    1.7340    1.2560 h1        1 MOL      0.085916
    112 H48        -1.7540    3.4550    3.4730 hc        1 MOL     -0.004617
    113 H49         0.6460    2.6060    4.2570 hc        1 MOL     -0.009442
    114 H50        -0.0530    0.9630    4.0660 hc        1 MOL     -0.009442
    115 H51        -3.1260    1.8400    2.2060 hc        1 MOL      0.054712
    116 H52        -2.0520    0.5370    2.6570 hc        1 MOL      0.054712
    117 H53        -2.9310    1.3430    3.8910 hc        1 MOL      0.054712
    118 H54        -1.8000    1.5530    5.6770 hc        1 MOL      0.062148
    119 H55        -0.2980    1.9930    6.5000 hc        1 MOL      0.062148
    120 H56        -1.1550    3.2510    5.8070 hc        1 MOL      0.062148
    121 N11        -2.1190    3.1870   -0.1110 n         1 MOL     -0.524288
    122 C40        -3.1800    3.9710   -0.8220 c3        1 MOL      0.230146
    123 C41        -4.6080    3.6540   -0.3680 c         1 MOL      0.402603
    124 O16        -4.8840    2.5970    0.2970 o         1 MOL     -0.395481
    125 C42        -2.9900    3.8470   -2.3640 c3        1 MOL     -0.127934
    126 O17        -3.7490    2.7490   -2.8900 oh        1 MOL     -0.514418
    127 H57        -2.0160    2.2050   -0.2960 hn        1 MOL      0.331274
    128 H58        -3.0310    4.9780   -0.4400 h1        1 MOL      0.006213
    129 H59        -1.9080    3.8230   -2.5130 h1        1 MOL      0.089084
    130 H60        -3.4700    4.6910   -2.8520 h1        1 MOL      0.089084
    131 H61        -4.2420    3.0850   -3.6400 ho        1 MOL      0.400476
    132 N12        -5.5090    4.6220   -0.6330 n         1 MOL     -0.378419
    133 C43        -6.8760    4.5520   -0.2020 c3        1 MOL      0.041369
    134 C44        -7.6180    3.4040   -0.8710 c         1 MOL      0.537012
    135 O18        -8.5290    2.8250   -0.2850 o         1 MOL     -0.518304
    136 C45        -7.5720    5.8580   -0.3830 c3        1 MOL     -0.382429
    137 H62        -5.3450    5.4980   -1.1090 hn        1 MOL      0.287894
    138 H63        -6.8930    4.3910    0.8790 h1        1 MOL      0.116654
    139 H64        -7.1650    6.6460    0.2630 hc        1 MOL      0.118331
    140 H65        -7.4720    6.2490   -1.3940 hc        1 MOL      0.118331
    141 H66        -8.6320    5.6570   -0.2080 hc        1 MOL      0.118331
    142 N13        -7.1870    2.9600   -2.0860 n         1 MOL     -0.438175
    143 C46        -7.4680    1.6980   -2.7180 c3        1 MOL      0.115359
    144 C47        -6.9950    0.4030   -2.0130 c         1 MOL      0.353980
    145 O19        -7.6140   -0.6170   -2.2230 o         1 MOL     -0.513300
    146 C48        -6.8490    1.6850   -4.0990 c3        1 MOL     -0.052200
    147 H67        -6.5050    3.5660   -2.5110 hn        1 MOL      0.223134
    148 H68        -8.5510    1.6320   -2.8630 h1        1 MOL      0.079055
    149 H69        -7.3860    0.9180   -4.6620 hc        1 MOL      0.012298
    150 H70        -6.9900    2.6520   -4.5790 hc        1 MOL      0.012298
    151 H71        -5.7680    1.5340   -4.0500 hc        1 MOL      0.012298
    152 N14        -5.9330    0.4020   -1.2560 n         1 MOL     -0.077912
    153 C49        -5.6060   -0.7430   -0.3760 c3        1 MOL     -0.232352
    154 C50        -6.5660   -0.7040    0.8960 c         1 MOL      0.566091
    155 O20        -6.9590   -1.7260    1.4080 o         1 MOL     -0.546187
    156 C51        -4.0290   -0.6560   -0.0850 c3        1 MOL     -0.057026
    157 C52        -3.1350   -0.8840   -1.2590 c3        1 MOL      0.216987
    158 C53        -1.6890   -0.7700   -1.0360 c         1 MOL      0.889432
    159 O21        -1.1320    0.3470   -0.8330 o         1 MOL     -0.833299
    160 O22        -0.8740   -1.6930   -1.1210 o         1 MOL     -0.833299
    161 H72        -5.2840    1.1810   -1.2090 hn        1 MOL      0.227714
    162 H73        -5.8230   -1.6630   -0.9230 h1        1 MOL      0.116358
    163 H74        -3.8350   -1.4600    0.6200 hc        1 MOL      0.003509
    164 H75        -3.7490    0.3020    0.3540 hc        1 MOL      0.003509
    165 H76        -3.3740   -0.1890   -2.0630 hc        1 MOL     -0.092580
    166 H77        -3.2880   -1.8840   -1.6710 hc        1 MOL     -0.092580
    167 N15        -6.9220    0.4970    1.3960 n         1 MOL     -0.157788
    168 C54        -7.8950    0.5670    2.4780 c3        1 MOL     -0.329378
    169 H78        -7.6600   -0.1900    3.2260 h1        1 MOL      0.127060
    170 H79        -7.8590    1.5550    2.9360 h1        1 MOL      0.127060
    171 H80        -8.8940    0.3870    2.0810 h1        1 MOL      0.127060
    172 H81        -6.5380    1.3170    0.9610 hn        1 MOL      0.122185
    173 Ca1         1.4060   -0.3360   -1.3400 Ca        1 MOL      1.724487
    174 O23         1.4240    2.0360   -2.8670 oh        1 MOL     -0.826894
    175 H82         1.3880    2.9100   -2.4770 ho        1 MOL      0.405467
    176 H83         0.7200    2.0360   -3.5110 ho        1 MOL      0.405467
    177 O24         0.2100   -0.5000   -3.6190 oh        1 MOL     -0.826894
    178 H84         0.7690   -0.8010   -4.3340 ho        1 MOL      0.405467
    179 H85        -0.6800   -0.7280   -3.9130 ho        1 MOL      0.405467
@<TRIPOS>BOND
     1    1    2 1   
     2    1    4 1   
     3    1    5 1   
     4    1    6 1   
     5    2    3 2   
     6    2    7 1   
     7    7    8 1   
     8    7   15 1   
     9    8    9 1   
    10    8   11 1   
    11    8   16 1   
    12    9   10 2   
    13    9   19 1   
    14   11   12 1   
    15   11   17 1   
    16   11   18 1   
    17   12   13 1   
    18   12   14 1   
    19   19   20 1   
    20   19   28 1   
    21   20   21 1   
    22   20   23 1   
    23   20   29 1   
    24   21   22 2   
    25   21   41 1   
    26   23   24 1   
    27   23   30 1   
    28   23   31 1   
    29   24   25 1   
    30   24   32 1   
    31   24   33 1   
    32   25   26 1   
    33   25   34 1   
    34   25   35 1   
    35   26   27 1   
    36   26   36 1   
    37   26   37 1   
    38   27   38 1   
    39   27   39 1   
    40   27   40 1   
    41   41   42 1   
    42   41   49 1   
    43   42   43 1   
    44   42   45 1   
    45   42   50 1   
    46   43   44 2   
    47   43   53 1   
    48   45   46 1   
    49   45   51 1   
    50   45   52 1   
    51   46   47 1   
    52   46   48 1   
    53   53   54 1   
    54   53   57 1   
    55   54   55 1   
    56   54   58 1   
    57   54   59 1   
    58   55   56 2   
    59   55   60 1   
    60   60   61 1   
    61   60   68 1   
    62   61   62 1   
    63   61   64 1   
    64   61   69 1   
    65   62   63 2   
    66   62   74 1   
    67   64   65 1   
    68   64   70 1   
    69   64   71 1   
    70   65   66 1   
    71   65   67 2   
    72   66   72 1   
    73   66   73 1   
    74   74   75 1   
    75   74   78 1   
    76   75   76 1   
    77   75   79 1   
    78   75   80 1   
    79   76   77 2   
    80   76   81 1   
    81   81   82 1   
    82   81   93 1   
    83   82   83 1   
    84   82   85 1   
    85   82   94 1   
    86   83   84 2   
    87   83  102 1   
    88   85   86 1   
    89   85   95 1   
    90   85   96 1   
    91   86   87 ar  
    92   86   88 ar  
    93   87   89 ar  
    94   87   97 1   
    95   88   90 ar  
    96   88   98 1   
    97   89   91 ar  
    98   89   99 1   
    99   90   91 ar  
   100   90  100 1   
   101   91   92 1   
   102   92  101 1   
   103  102  103 1   
   104  102  110 1   
   105  103  104 1   
   106  103  106 1   
   107  103  111 1   
   108  104  105 2   
   109  104  121 1   
   110  106  107 1   
   111  106  108 1   
   112  106  112 1   
   113  107  109 1   
   114  107  113 1   
   115  107  114 1   
   116  108  115 1   
   117  108  116 1   
   118  108  117 1   
   119  109  118 1   
   120  109  119 1   
   121  109  120 1   
   122  121  122 1   
   123  121  127 1   
   124  122  123 1   
   125  122  125 1   
   126  122  128 1   
   127  123  124 2   
   128  123  132 1   
   129  125  126 1   
   130  125  129 1   
   131  125  130 1   
   132  126  131 1   
   133  132  133 1   
   134  132  137 1   
   135  133  134 1   
   136  133  136 1   
   137  133  138 1   
   138  134  135 2   
   139  134  142 1   
   140  136  139 1   
   141  136  140 1   
   142  136  141 1   
   143  142  143 1   
   144  142  147 1   
   145  143  144 1   
   146  143  146 1   
   147  143  148 1   
   148  144  145 2   
   149  144  152 1   
   150  146  149 1   
   151  146  150 1   
   152  146  151 1   
   153  152  153 1   
   154  152  161 1   
   155  153  154 1   
   156  153  156 1   
   157  153  162 1   
   158  154  155 2   
   159  154  167 1   
   160  156  157 1   
   161  156  163 1   
   162  156  164 1   
   163  157  158 1   
   164  157  165 1   
   165  157  166 1   
   166  158  159 1   
   167  158  160 1   
   168  167  168 1   
   169  167  172 1   
   170  168  169 1   
   171  168  170 1   
   172  168  171 1   
   173  174  175 1   
   174  174  176 1   
   175  177  178 1   
   176  177  179 1   
@<TRIPOS>SUBSTRUCTURE
     1 MOL         1 TEMP              0 ****  ****    0 ROOT
