@<TRIPOS>MOLECULE
MOL
  179   176     1     0     0
SMALL
resp


@<TRIPOS>ATOM
      1 C1         -0.0930    3.7240    6.7140 c3        1 MOL     -0.299398
      2 C2         -0.0720    3.4610    5.1410 c         1 MOL      0.659954
      3 O1          0.8860    3.8860    4.5470 o         1 MOL     -0.573851
      4 H1         -0.1480    4.7970    6.9010 hc        1 MOL      0.074688
      5 H2         -0.9620    3.2350    7.1540 hc        1 MOL      0.074688
      6 H3          0.8160    3.3240    7.1630 hc        1 MOL      0.074688
      7 N1         -1.1570    3.1320    4.5210 n         1 MOL     -0.462358
      8 C3         -1.2540    2.9640    3.0660 c3        1 MOL     -0.165423
      9 C4         -1.7140    4.2200    2.2950 c         1 MOL      0.598723
     10 O2         -2.8340    4.7210    2.5180 o         1 MOL     -0.527118
     11 C5         -2.2160    1.7680    2.7010 c3        1 MOL     -0.144773
     12 C6         -2.1680    1.3580    1.2460 c         1 MOL      0.520584
     13 O3         -1.3400    1.9100    0.4470 o         1 MOL     -0.735927
     14 O4         -2.8280    0.3500    0.9730 o         1 MOL     -0.735927
     15 H4         -1.9130    2.9370    5.1570 hn        1 MOL      0.303670
     16 H5         -0.3060    2.5530    2.7380 h1        1 MOL      0.156781
     17 H6         -3.2640    2.0440    2.8030 hc        1 MOL      0.078127
     18 H7         -1.9510    0.9550    3.3810 hc        1 MOL      0.078127
     19 N2         -0.8730    4.7500    1.4530 n         1 MOL     -0.270606
     20 C7         -1.0220    5.9540    0.6560 c3        1 MOL     -0.048133
     21 C8         -2.3200    5.9030   -0.1650 c         1 MOL      0.386916
     22 O5         -3.1170    6.8660   -0.1610 o         1 MOL     -0.574019
     23 C9          0.2080    6.2980   -0.1670 c3        1 MOL      0.126469
     24 C10         0.2140    7.7430   -0.5970 c3        1 MOL      0.064755
     25 C11         1.4260    8.0840   -1.3710 c3        1 MOL     -0.281945
     26 C12         1.0990    9.3270   -2.2240 c3        1 MOL      0.074477
     27 N3          2.2720    9.7110   -2.9570 n4        1 MOL     -0.213792
     28 H8          0.0150    4.2670    1.4150 hn        1 MOL      0.226419
     29 H9         -1.1260    6.8070    1.3320 h1        1 MOL      0.062824
     30 H10         0.2620    5.6240   -1.0210 hc        1 MOL     -0.004986
     31 H11         1.0860    6.1280    0.4640 hc        1 MOL     -0.004986
     32 H12         0.1520    8.4210    0.2530 hc        1 MOL      0.019495
     33 H13        -0.6610    7.7620   -1.2500 hc        1 MOL      0.019495
     34 H14         1.8070    7.3340   -2.0610 hc        1 MOL      0.103572
     35 H15         2.1280    8.2510   -0.5520 hc        1 MOL      0.103572
     36 H16         0.7740   10.1450   -1.5840 hx        1 MOL      0.079805
     37 H17         0.3080    9.1010   -2.9300 hx        1 MOL      0.079805
     38 H18         2.9080    8.9490   -3.1280 hn        1 MOL      0.288236
     39 H19         2.1800   10.4150   -3.6830 hn        1 MOL      0.288236
     40 H20         2.8730   10.2730   -2.3910 hn        1 MOL      0.288236
     41 N4         -2.5900    4.8460   -0.8510 n         1 MOL     -0.123958
     42 C13        -3.8250    4.7020   -1.6930 c3        1 MOL      0.025628
     43 C14        -5.0240    3.9670   -1.0200 c         1 MOL      0.375473
     44 O6         -6.1140    3.8130   -1.5910 o         1 MOL     -0.547324
     45 C15        -3.3690    3.9240   -2.9470 c3        1 MOL     -0.401437
     46 C16        -2.6680    2.5900   -2.5010 c         1 MOL      0.758203
     47 O7         -3.3800    1.6660   -2.0610 o         1 MOL     -0.696521
     48 O8         -1.4200    2.5500   -2.4890 o         1 MOL     -0.696521
     49 H21        -1.9270    4.0770   -0.9430 hn        1 MOL      0.229401
     50 H22        -4.1490    5.6890   -2.0190 h1        1 MOL      0.105974
     51 H23        -2.5700    4.4020   -3.5080 hc        1 MOL      0.102523
     52 H24        -4.2340    3.6500   -3.5540 hc        1 MOL      0.102523
     53 N5         -4.7390    3.4160    0.1200 n         1 MOL     -0.004444
     54 C17        -5.6940    2.7010    0.9290 c3        1 MOL     -0.256340
     55 C18        -6.1810    1.3160    0.3720 c         1 MOL      0.604785
     56 O9         -7.0730    0.7720    0.9810 o         1 MOL     -0.619173
     57 H25        -3.8070    3.6010    0.4650 hn        1 MOL      0.097551
     58 H26        -6.5070    3.3930    1.1740 h1        1 MOL      0.121176
     59 H27        -5.2900    2.4560    1.9060 h1        1 MOL      0.121176
     60 N6         -5.7210    0.7040   -0.7060 n         1 MOL     -0.212252
     61 C19        -6.3650   -0.3700   -1.4820 c3        1 MOL     -0.101488
     62 C20        -6.4930   -1.7620   -0.7110 c         1 MOL      0.369495
     63 O10        -6.9380   -2.7400   -1.3330 o         1 MOL     -0.530356
     64 C21        -5.4940   -0.6320   -2.7730 c3        1 MOL     -0.125605
     65 C22        -4.4730   -1.7290   -2.6060 c         1 MOL      0.632418
     66 N7         -4.3800   -2.6400   -3.4950 n         1 MOL     -0.703685
     67 O11        -3.6450   -1.7350   -1.6900 o         1 MOL     -0.615909
     68 H28        -4.8670    1.1140   -1.0560 hn        1 MOL      0.203702
     69 H29        -7.3630    0.0070   -1.7340 h1        1 MOL      0.130505
     70 H30        -5.0410    0.2630   -3.2000 hc        1 MOL      0.067827
     71 H31        -6.1700   -0.9620   -3.5750 hc        1 MOL      0.067827
     72 H32        -4.9260   -2.6880   -4.3480 hn        1 MOL      0.350132
     73 H33        -3.7180   -3.3690   -3.2870 hn        1 MOL      0.350132
     74 N8         -5.9540   -1.8290    0.4980 n         1 MOL     -0.012587
     75 C23        -5.9900   -3.0090    1.3670 c3        1 MOL     -0.330268
     76 C24        -4.5740   -3.7110    1.5620 c         1 MOL      0.669509
     77 O12        -4.4660   -4.7460    2.2220 o         1 MOL     -0.549086
     78 H34        -5.4760   -0.9670    0.7570 hn        1 MOL      0.201713
     79 H35        -6.6950   -3.7300    0.9480 h1        1 MOL      0.138894
     80 H36        -6.3880   -2.6860    2.3200 h1        1 MOL      0.138894
     81 N9         -3.4450   -3.1620    1.0200 n         1 MOL     -0.760469
     82 C25        -2.0870   -3.8400    1.0330 c3        1 MOL      0.688909
     83 C26        -0.9360   -2.8590    1.0900 c         1 MOL      0.109030
     84 O13        -1.1110   -1.7010    0.6610 o         1 MOL     -0.395645
     85 C27        -1.9710   -4.8170   -0.2190 c3        1 MOL     -0.055458
     86 C28        -2.7320   -6.1470   -0.1350 ca        1 MOL      0.052183
     87 C29        -3.6880   -6.3740   -1.0670 ca        1 MOL     -0.140083
     88 C30        -2.3800   -7.1780    0.8170 ca        1 MOL     -0.140083
     89 C31        -4.4450   -7.5940   -1.0360 ca        1 MOL     -0.302040
     90 C32        -3.1510   -8.3240    0.9000 ca        1 MOL     -0.302040
     91 C33        -4.2930   -8.5040    0.0420 ca        1 MOL      0.372709
     92 O14        -5.2880   -9.3710    0.3570 oh        1 MOL     -0.506504
     93 H37        -3.5000   -2.3200    0.4530 hn        1 MOL      0.409101
     94 H38        -1.9690   -4.4940    1.8940 h1        1 MOL     -0.076325
     95 H39        -0.9180   -5.0720   -0.3520 hc        1 MOL     -0.026219
     96 H40        -2.3900   -4.2650   -1.0480 hc        1 MOL     -0.026219
     97 H41        -3.8410   -5.7950   -1.9640 ha        1 MOL      0.132767
     98 H42        -1.5950   -6.9530    1.5320 ha        1 MOL      0.132767
     99 H43        -5.2520   -7.7220   -1.7490 ha        1 MOL      0.152703
    100 H44        -2.8490   -9.0510    1.6440 ha        1 MOL      0.152703
    101 H45        -5.1820   -9.7430    1.2300 ho        1 MOL      0.392136
    102 N10         0.2330   -3.2680    1.5040 n         1 MOL     -0.328289
    103 C34         1.4890   -2.4830    1.4800 c3        1 MOL      0.032440
    104 C35         2.6290   -3.4310    1.0280 c         1 MOL      0.528397
    105 O15         3.0020   -4.3480    1.8170 o         1 MOL     -0.518292
    106 C36         1.7760   -1.7870    2.8930 c3        1 MOL     -0.032869
    107 C37         0.8790   -0.5360    3.0830 c3        1 MOL      0.195104
    108 C38         3.2260   -1.3500    3.1210 c3        1 MOL     -0.219639
    109 C39         0.7630   -0.0340    4.4810 c3        1 MOL     -0.139647
    110 H46         0.4040   -4.2010    1.8550 hn        1 MOL      0.265016
    111 H47         1.4580   -1.6750    0.7520 h1        1 MOL     -0.089601
    112 H48         1.5790   -2.5920    3.6110 hc        1 MOL      0.039748
    113 H49        -0.1330   -0.7720    2.7370 hc        1 MOL      0.043654
    114 H50         1.1930    0.3020    2.4640 hc        1 MOL      0.043654
    115 H51         3.3120   -0.4020    2.5940 hc        1 MOL      0.062177
    116 H52         3.2280   -1.1560    4.1960 hc        1 MOL      0.062177
    117 H53         3.9760   -2.0360    2.7470 hc        1 MOL      0.062177
    118 H54         0.3730   -0.8630    5.0850 hc        1 MOL      0.007997
    119 H55         1.7360    0.3350    4.7840 hc        1 MOL      0.007997
    120 H56         0.0220    0.7660    4.5600 hc        1 MOL      0.007997
    121 N11         3.2170   -3.1620   -0.1900 n         1 MOL     -0.400145
    122 C40         4.4710   -3.7840   -0.6220 c3        1 MOL     -0.030687
    123 C41         5.7690   -3.1030   -0.0800 c         1 MOL      0.472922
    124 O16         5.7410   -2.0820    0.5890 o         1 MOL     -0.387223
    125 C42         4.4230   -3.9200   -2.1730 c3        1 MOL      0.132665
    126 O17         4.4010   -2.6070   -2.8150 oh        1 MOL     -0.600801
    127 H57         2.8810   -2.4930   -0.8690 hn        1 MOL      0.305541
    128 H58         4.4350   -4.8280   -0.2960 h1        1 MOL      0.056474
    129 H59         3.5420   -4.4820   -2.4680 h1        1 MOL      0.043848
    130 H60         5.2410   -4.4850   -2.6280 h1        1 MOL      0.043848
    131 H61         3.5120   -2.2610   -2.7140 ho        1 MOL      0.389507
    132 N12         6.9180   -3.6710   -0.3310 n         1 MOL     -0.450169
    133 C43         8.2510   -3.0700    0.0990 c3        1 MOL      0.173372
    134 C44         8.4740   -1.6170   -0.4250 c         1 MOL      0.463994
    135 O18         9.0430   -0.7840    0.2850 o         1 MOL     -0.512324
    136 C45         9.3480   -3.9840   -0.4880 c3        1 MOL     -0.295471
    137 H62         6.9510   -4.4410   -0.9820 hn        1 MOL      0.254215
    138 H63         8.2820   -3.1200    1.1920 h1        1 MOL      0.075403
    139 H64         9.7660   -3.4840   -1.3710 hc        1 MOL      0.088898
    140 H65        10.0440   -4.1190    0.3290 hc        1 MOL      0.088898
    141 H66         9.0250   -5.0110   -0.6660 hc        1 MOL      0.088898
    142 N13         8.0480   -1.3120   -1.6780 n         1 MOL     -0.322214
    143 C46         8.2010    0.0290   -2.1700 c3        1 MOL      0.031387
    144 C47         7.2590    1.0240   -1.4380 c         1 MOL      0.375909
    145 O19         7.6200    2.1720   -1.3140 o         1 MOL     -0.507601
    146 C48         7.8190    0.0830   -3.6530 c3        1 MOL     -0.329825
    147 H67         7.5650   -2.0180   -2.2100 hn        1 MOL      0.263273
    148 H68         9.2360    0.3580   -2.1610 h1        1 MOL      0.118948
    149 H69         7.7680    1.1290   -3.9640 hc        1 MOL      0.097772
    150 H70         8.5890   -0.3620   -4.2820 hc        1 MOL      0.097772
    151 H71         6.8550   -0.3470   -3.9220 hc        1 MOL      0.097772
    152 N14         6.0900    0.5400   -0.9390 n         1 MOL     -0.136405
    153 C49         5.1070    1.2490   -0.1340 c3        1 MOL      0.072575
    154 C50         5.5000    1.3550    1.3330 c         1 MOL      0.361865
    155 O20         5.1240    2.3920    1.9240 o         1 MOL     -0.573101
    156 C51         3.7220    0.6240   -0.2600 c3        1 MOL      0.123055
    157 C52         3.1770    0.6550   -1.7120 c3        1 MOL     -0.415504
    158 C53         1.9530   -0.1860   -1.9460 c         1 MOL      0.959856
    159 O21         2.1680   -1.3560   -2.2020 o         1 MOL     -0.751206
    160 O22         0.7660    0.2400   -1.9890 o         1 MOL     -0.751206
    161 H72         5.8040   -0.4010   -1.1380 hn        1 MOL      0.107708
    162 H73         5.0240    2.2810   -0.4700 h1        1 MOL      0.053617
    163 H74         3.1140    1.2200    0.4190 hc        1 MOL      0.003662
    164 H75         3.7000   -0.4050    0.1020 hc        1 MOL      0.003662
    165 H76         3.8970    0.3180   -2.4570 hc        1 MOL      0.080866
    166 H77         2.9510    1.6590   -2.0540 hc        1 MOL      0.080866
    167 N15         6.1510    0.3960    1.9030 n         1 MOL     -0.000488
    168 C54         6.6200    0.4250    3.3000 c3        1 MOL     -0.110325
    169 H78         6.5000    1.4310    3.7020 h1        1 MOL      0.062435
    170 H79         6.0340   -0.2760    3.8950 h1        1 MOL      0.062435
    171 H80         7.6720    0.1420    3.3360 h1        1 MOL      0.062435
    172 H81         6.4920   -0.3450    1.3100 hn        1 MOL      0.053231
    173 Ca1        -1.6170   -0.0720   -1.4080 Ca        1 MOL      1.660749
    174 O23        -0.5440   -2.2770   -2.1660 oh        1 MOL     -0.794709
    175 H82         0.3180   -1.8550   -2.1280 ho        1 MOL      0.383014
    176 H83        -0.3530   -3.2000   -2.3390 ho        1 MOL      0.383014
    177 O24        -1.8280   -0.4120   -4.0370 oh        1 MOL     -0.794709
    178 H84        -2.5940   -0.5130   -4.5960 ho        1 MOL      0.383014
    179 H85        -1.1700   -0.9900   -4.4330 ho        1 MOL      0.383014
@<TRIPOS>BOND
     1    1    2 1   
     2    1    4 1   
     3    1    5 1   
     4    1    6 1   
     5    2    3 2   
     6    2    7 1   
     7    7    8 1   
     8    7   15 1   
     9    8    9 1   
    10    8   11 1   
    11    8   16 1   
    12    9   10 2   
    13    9   19 1   
    14   11   12 1   
    15   11   17 1   
    16   11   18 1   
    17   12   13 1   
    18   12   14 1   
    19   19   20 1   
    20   19   28 1   
    21   20   21 1   
    22   20   23 1   
    23   20   29 1   
    24   21   22 2   
    25   21   41 1   
    26   23   24 1   
    27   23   30 1   
    28   23   31 1   
    29   24   25 1   
    30   24   32 1   
    31   24   33 1   
    32   25   26 1   
    33   25   34 1   
    34   25   35 1   
    35   26   27 1   
    36   26   36 1   
    37   26   37 1   
    38   27   38 1   
    39   27   39 1   
    40   27   40 1   
    41   41   42 1   
    42   41   49 1   
    43   42   43 1   
    44   42   45 1   
    45   42   50 1   
    46   43   44 2   
    47   43   53 1   
    48   45   46 1   
    49   45   51 1   
    50   45   52 1   
    51   46   47 1   
    52   46   48 1   
    53   53   54 1   
    54   53   57 1   
    55   54   55 1   
    56   54   58 1   
    57   54   59 1   
    58   55   56 2   
    59   55   60 1   
    60   60   61 1   
    61   60   68 1   
    62   61   62 1   
    63   61   64 1   
    64   61   69 1   
    65   62   63 2   
    66   62   74 1   
    67   64   65 1   
    68   64   70 1   
    69   64   71 1   
    70   65   66 1   
    71   65   67 2   
    72   66   72 1   
    73   66   73 1   
    74   74   75 1   
    75   74   78 1   
    76   75   76 1   
    77   75   79 1   
    78   75   80 1   
    79   76   77 2   
    80   76   81 1   
    81   81   82 1   
    82   81   93 1   
    83   82   83 1   
    84   82   85 1   
    85   82   94 1   
    86   83   84 2   
    87   83  102 1   
    88   85   86 1   
    89   85   95 1   
    90   85   96 1   
    91   86   87 ar  
    92   86   88 ar  
    93   87   89 ar  
    94   87   97 1   
    95   88   90 ar  
    96   88   98 1   
    97   89   91 ar  
    98   89   99 1   
    99   90   91 ar  
   100   90  100 1   
   101   91   92 1   
   102   92  101 1   
   103  102  103 1   
   104  102  110 1   
   105  103  104 1   
   106  103  106 1   
   107  103  111 1   
   108  104  105 2   
   109  104  121 1   
   110  106  107 1   
   111  106  108 1   
   112  106  112 1   
   113  107  109 1   
   114  107  113 1   
   115  107  114 1   
   116  108  115 1   
   117  108  116 1   
   118  108  117 1   
   119  109  118 1   
   120  109  119 1   
   121  109  120 1   
   122  121  122 1   
   123  121  127 1   
   124  122  123 1   
   125  122  125 1   
   126  122  128 1   
   127  123  124 2   
   128  123  132 1   
   129  125  126 1   
   130  125  129 1   
   131  125  130 1   
   132  126  131 1   
   133  132  133 1   
   134  132  137 1   
   135  133  134 1   
   136  133  136 1   
   137  133  138 1   
   138  134  135 2   
   139  134  142 1   
   140  136  139 1   
   141  136  140 1   
   142  136  141 1   
   143  142  143 1   
   144  142  147 1   
   145  143  144 1   
   146  143  146 1   
   147  143  148 1   
   148  144  145 2   
   149  144  152 1   
   150  146  149 1   
   151  146  150 1   
   152  146  151 1   
   153  152  153 1   
   154  152  161 1   
   155  153  154 1   
   156  153  156 1   
   157  153  162 1   
   158  154  155 2   
   159  154  167 1   
   160  156  157 1   
   161  156  163 1   
   162  156  164 1   
   163  157  158 1   
   164  157  165 1   
   165  157  166 1   
   166  158  159 1   
   167  158  160 1   
   168  167  168 1   
   169  167  172 1   
   170  168  169 1   
   171  168  170 1   
   172  168  171 1   
   173  174  175 1   
   174  174  176 1   
   175  177  178 1   
   176  177  179 1   
@<TRIPOS>SUBSTRUCTURE
     1 MOL         1 TEMP              0 ****  ****    0 ROOT
