@<TRIPOS>MOLECULE
MOL
  189   185     1     0     0
SMALL
resp


@<TRIPOS>ATOM
      1 C1         -0.7430    3.0080    5.2740 c3        1 MOL     -0.417850
      2 C2         -1.1070    2.7140    3.8200 c         1 MOL      0.823422
      3 O1         -0.3970    3.2020    2.9910 o         1 MOL     -0.625246
      4 H1          0.2520    3.4500    5.3170 hc        1 MOL      0.102926
      5 H2         -1.4670    3.7030    5.6970 hc        1 MOL      0.102926
      6 H3         -0.7520    2.0800    5.8460 hc        1 MOL      0.102926
      7 N1         -2.1860    1.9690    3.4940 n         1 MOL     -0.722953
      8 C3         -2.5040    1.5340    2.1750 c3        1 MOL      0.399267
      9 C4         -3.1560    2.7260    1.4540 c         1 MOL      0.331708
     10 O2         -4.2000    3.1830    1.9280 o         1 MOL     -0.555505
     11 C5         -3.2750    0.2330    2.2570 c3        1 MOL     -0.399775
     12 C6         -3.9270   -0.0830    0.9360 c         1 MOL      0.879435
     13 O3         -4.9450   -0.7700    0.8810 o         1 MOL     -0.689536
     14 O4         -3.3220    0.2790   -0.1300 o         1 MOL     -0.689536
     15 H4         -2.8670    1.6460    4.1680 hn        1 MOL      0.331467
     16 H5         -1.6210    1.2850    1.5860 h1        1 MOL      0.030844
     17 H6         -4.0590    0.4230    2.9770 hc        1 MOL      0.066156
     18 H7         -2.5210   -0.4890    2.5650 hc        1 MOL      0.066156
     19 N2         -2.4970    3.2240    0.4070 n         1 MOL     -0.003481
     20 C7         -2.7850    4.5320   -0.2180 c3        1 MOL      0.046214
     21 C8         -3.2400    4.4740   -1.6830 c         1 MOL      0.434735
     22 O5         -3.5580    5.5250   -2.2490 o         1 MOL     -0.560579
     23 C9         -1.5560    5.5230   -0.1860 c3        1 MOL     -0.119843
     24 C10        -1.8600    6.8230    0.5220 c3        1 MOL     -0.030891
     25 C11        -1.8730    6.8700    2.0560 c3        1 MOL     -0.182678
     26 C12        -3.0170    6.1640    2.8170 c3        1 MOL      0.041117
     27 N3         -4.3340    6.8200    2.5960 n4        1 MOL     -0.354999
     28 H8         -1.6770    2.7000    0.1570 hn        1 MOL      0.118735
     29 H9         -3.6590    4.8960    0.3190 h1        1 MOL     -0.000443
     30 H10        -1.0760    5.6150   -1.1650 hc        1 MOL      0.110368
     31 H11        -0.7510    5.1020    0.4070 hc        1 MOL      0.110368
     32 H12        -2.7670    7.2240    0.0660 hc        1 MOL      0.019444
     33 H13        -1.1370    7.5490    0.1410 hc        1 MOL      0.019444
     34 H14        -1.8180    7.8950    2.4030 hc        1 MOL      0.092700
     35 H15        -0.9470    6.5200    2.5090 hc        1 MOL      0.092700
     36 H16        -2.8990    6.2650    3.9030 hx        1 MOL      0.075196
     37 H17        -3.0060    5.1050    2.5740 hx        1 MOL      0.075196
     38 H18        -4.3620    7.7980    2.8440 hn        1 MOL      0.321149
     39 H19        -4.5420    6.7970    1.6110 hn        1 MOL      0.321149
     40 H20        -5.1070    6.3160    2.9970 hn        1 MOL      0.321149
     41 N4         -3.3990    3.2470   -2.1340 n         1 MOL     -0.276354
     42 C13        -4.2540    2.8800   -3.2790 c3        1 MOL      0.145367
     43 C14        -5.4280    2.0270   -2.7960 c         1 MOL      0.296320
     44 O6         -6.3050    1.7560   -3.6350 o         1 MOL     -0.494448
     45 C15        -3.5780    2.3720   -4.5560 c3        1 MOL     -0.392699
     46 C16        -2.2990    1.5730   -4.2380 c         1 MOL      0.866485
     47 O7         -2.4540    0.6650   -3.4170 o         1 MOL     -0.707728
     48 O8         -1.2040    1.7940   -4.7360 o         1 MOL     -0.707728
     49 H21        -2.9030    2.5950   -1.5360 hn        1 MOL      0.185095
     50 H22        -4.8070    3.7500   -3.6330 h1        1 MOL      0.097795
     51 H23        -3.2760    3.2370   -5.1460 hc        1 MOL      0.103192
     52 H24        -4.2050    1.6770   -5.1180 hc        1 MOL      0.103192
     53 N5         -5.6630    1.7530   -1.5370 n         1 MOL     -0.141994
     54 C17        -6.8870    1.1710   -0.9610 c3        1 MOL     -0.093587
     55 C18        -7.3190   -0.1390   -1.6190 c         1 MOL      0.534281
     56 O9         -8.4030   -0.3150   -1.9910 o         1 MOL     -0.529236
     57 H25        -4.9010    2.0080   -0.9270 hn        1 MOL      0.087714
     58 H26        -7.7300    1.8540   -1.0450 h1        1 MOL      0.073495
     59 H27        -6.7030    1.0000    0.0950 h1        1 MOL      0.073495
     60 N6         -6.3340   -1.1330   -1.7560 n         1 MOL     -0.142056
     61 C19        -6.4670   -2.5100   -2.1260 c3        1 MOL     -0.057420
     62 C20        -6.5920   -3.5620   -1.0160 c         1 MOL      0.436171
     63 O10        -6.8930   -4.7240   -1.2780 o         1 MOL     -0.530012
     64 C21        -5.3070   -2.9030   -3.0480 c3        1 MOL     -0.127098
     65 C22        -3.8860   -2.6230   -2.5740 c         1 MOL      0.803678
     66 O11        -2.9910   -2.2350   -3.3270 o         1 MOL     -0.757993
     67 O12        -3.5640   -2.7890   -1.3850 o         1 MOL     -0.757993
     68 H28        -5.4630   -0.9990   -1.2800 hn        1 MOL      0.032273
     69 H29        -7.3680   -2.5630   -2.7460 h1        1 MOL      0.113308
     70 H30        -5.5000   -2.4710   -4.0290 hc        1 MOL      0.044043
     71 H31        -5.4400   -3.9800   -3.1980 hc        1 MOL      0.044043
     72 N7         -6.3430   -3.1680    0.2520 n         1 MOL     -0.355885
     73 C23        -6.2860   -4.0890    1.4290 c3        1 MOL      0.067835
     74 C24        -4.8400   -4.3350    1.9620 c         1 MOL      0.378230
     75 O13        -4.7120   -5.2620    2.8150 o         1 MOL     -0.557947
     76 H32        -6.0810   -2.2130    0.4090 hn        1 MOL      0.227802
     77 H33        -6.6670   -5.0600    1.1160 h1        1 MOL      0.066207
     78 H34        -6.9430   -3.8450    2.2710 h1        1 MOL      0.066207
     79 N8         -3.7890   -3.7070    1.4380 n         1 MOL     -0.131051
     80 C25        -2.3760   -4.1630    1.7580 c3        1 MOL     -0.251372
     81 C26        -1.3380   -3.0030    1.7040 c         1 MOL      0.551465
     82 O14        -1.4440   -2.2150    0.7010 o         1 MOL     -0.638495
     83 C27        -1.8910   -5.3240    0.8500 c3        1 MOL      0.511622
     84 C28        -2.5350   -6.6820    1.0600 c3        1 MOL     -0.412013
     85 O15        -2.2440   -5.1130   -0.4410 oh        1 MOL     -0.647896
     86 H35        -3.9690   -3.0320    0.7030 hn        1 MOL      0.184341
     87 H36        -2.2740   -4.4620    2.7980 h1        1 MOL      0.099761
     88 H37        -0.8100   -5.3940    0.9600 h1        1 MOL     -0.012456
     89 H38        -2.9440   -4.4550   -0.4750 ho        1 MOL      0.453323
     90 H39        -3.5860   -6.6830    0.7750 hc        1 MOL      0.104202
     91 H40        -2.0040   -7.4710    0.5280 hc        1 MOL      0.104202
     92 H41        -2.4820   -6.9950    2.1000 hc        1 MOL      0.104202
     93 N9         -0.2020   -3.1710    2.4600 n         1 MOL     -0.524378
     94 C29         0.8560   -2.1660    2.6110 c3        1 MOL     -0.009503
     95 C30         2.1040   -2.7030    1.8700 c         1 MOL      0.578034
     96 O16         2.7080   -3.7340    2.2890 o         1 MOL     -0.585364
     97 C31         1.1610   -1.9240    4.0860 c3        1 MOL      0.111503
     98 C32        -0.2130   -1.8090    4.9130 c3        1 MOL      0.078241
     99 C33         1.8840   -0.5930    4.1940 c3        1 MOL     -0.147154
    100 C34         0.0150   -1.7720    6.4820 c3        1 MOL     -0.204987
    101 H42        -0.2630   -3.9090    3.1390 hn        1 MOL      0.300169
    102 H43         0.5200   -1.2470    2.1300 h1        1 MOL      0.191767
    103 H44         1.8650   -2.6450    4.5090 hc        1 MOL      0.020376
    104 H45        -0.7060   -2.7790    4.8290 hc        1 MOL     -0.000629
    105 H46        -0.8550   -0.9770    4.6190 hc        1 MOL     -0.000629
    106 H47         2.7790   -0.5510    3.5790 hc        1 MOL      0.021266
    107 H48         1.3000    0.2680    3.8670 hc        1 MOL      0.021266
    108 H49         2.1740   -0.4960    5.2370 hc        1 MOL      0.021266
    109 H50        -0.8940   -2.2010    6.9120 hc        1 MOL      0.048331
    110 H51         0.8260   -2.4260    6.8180 hc        1 MOL      0.048331
    111 H52         0.2150   -0.7800    6.8940 hc        1 MOL      0.048331
    112 N10         2.5150   -2.0850    0.7740 n         1 MOL     -0.160981
    113 C35         3.8280   -2.3500    0.0750 c3        1 MOL     -0.202042
    114 C36         5.0820   -1.7590    0.7020 c         1 MOL      0.375298
    115 O17         5.0560   -0.7770    1.3950 o         1 MOL     -0.277270
    116 C37         3.8500   -1.8920   -1.3750 c3        1 MOL      0.024157
    117 C38         2.8010   -2.5760   -2.2020 c3        1 MOL     -0.323539
    118 O18         3.7590   -0.4200   -1.4280 oh        1 MOL     -0.260909
    119 H53         2.0650   -1.2030    0.5490 hn        1 MOL      0.054586
    120 H54         3.8770   -3.4330   -0.0480 h1        1 MOL      0.144773
    121 H55         4.7980   -2.2090   -1.8200 h1        1 MOL      0.052440
    122 H56         3.2410   -0.2880   -2.2200 ho        1 MOL      0.305419
    123 H57         1.8750   -2.0300   -2.0490 hc        1 MOL      0.119209
    124 H58         3.0750   -2.5570   -3.2600 hc        1 MOL      0.119209
    125 H59         2.6660   -3.6200   -1.9260 hc        1 MOL      0.119209
    126 N11         6.2370   -2.3040    0.4330 n         1 MOL     -0.256967
    127 C39         7.5290   -1.7010    0.8090 c3        1 MOL     -0.398782
    128 C40         7.7040   -0.2310    0.4430 c         1 MOL      0.436740
    129 O19         8.5600    0.4230    1.0470 o         1 MOL     -0.491725
    130 C41         8.7430   -2.5420    0.2420 c3        1 MOL      0.480952
    131 C42         8.8980   -3.9680    0.7980 c3        1 MOL     -0.404294
    132 O20         8.5210   -2.6790   -1.1640 oh        1 MOL     -0.608006
    133 H60         6.3240   -3.1700   -0.0820 hn        1 MOL      0.279191
    134 H61         7.5310   -1.7390    1.8920 h1        1 MOL      0.199546
    135 H62         9.6590   -1.9790    0.4040 h1        1 MOL      0.019447
    136 H63         9.3340   -2.3500   -1.5330 ho        1 MOL      0.326788
    137 H64         9.5420   -4.5150    0.1200 hc        1 MOL      0.116810
    138 H65         9.3660   -3.7790    1.7560 hc        1 MOL      0.116810
    139 H66         7.9520   -4.5000    0.9010 hc        1 MOL      0.116810
    140 N12         7.0620    0.2640   -0.6120 n         1 MOL     -0.336409
    141 C43         6.9810    1.6560   -0.9930 c3        1 MOL      0.103844
    142 C44         5.9670    2.4920   -0.1560 c         1 MOL      0.397381
    143 O21         6.3190    3.5950    0.2520 o         1 MOL     -0.499873
    144 C45         6.8200    1.7100   -2.5180 c3        1 MOL     -0.082862
    145 C46         7.9580    1.0530   -3.2720 c3        1 MOL     -0.024122
    146 C47         7.8360    1.2240   -4.7750 c3        1 MOL      0.181832
    147 C48         8.9570    0.4990   -5.5760 c3        1 MOL     -0.158069
    148 N13         9.2880   -0.8860   -5.0260 n4        1 MOL     -0.244884
    149 H67         6.3600   -0.3190   -1.0510 hn        1 MOL      0.238230
    150 H68         7.9570    2.0950   -0.8000 h1        1 MOL      0.083301
    151 H69         6.8610    2.7400   -2.8670 hc        1 MOL      0.011312
    152 H70         5.9200    1.1570   -2.7700 hc        1 MOL      0.011312
    153 H71         7.9860   -0.0030   -3.0080 hc        1 MOL      0.011816
    154 H72         8.8440    1.5780   -2.9140 hc        1 MOL      0.011816
    155 H73         7.9100    2.2420   -5.1480 hc        1 MOL      0.008461
    156 H74         6.8820    0.8430   -5.1580 hc        1 MOL      0.008461
    157 H75         9.8420    1.1320   -5.5690 hx        1 MOL      0.129261
    158 H76         8.6540    0.3820   -6.6140 hx        1 MOL      0.129261
    159 H77         9.9190   -1.3020   -5.6970 hn        1 MOL      0.268018
    160 H78         9.9110   -0.9290   -4.2220 hn        1 MOL      0.268018
    161 H79         8.5020   -1.5100   -4.9310 hn        1 MOL      0.268018
    162 N14         4.7860    1.9090    0.1490 n         1 MOL     -0.051630
    163 C49         3.6830    2.5920    0.8530 c3        1 MOL     -0.127072
    164 C50         4.0000    2.8430    2.3110 c         1 MOL      0.537564
    165 O22         3.9730    3.9910    2.7890 o         1 MOL     -0.536770
    166 C51         2.4280    1.7400    0.7280 c3        1 MOL      0.346887
    167 C52         1.6000    2.0670   -0.4470 c3        1 MOL      0.054673
    168 C53         0.3970    1.1280   -0.4880 c         1 MOL      0.598243
    169 O23         0.4940   -0.1300   -0.2560 o         1 MOL     -0.710698
    170 O24        -0.7200    1.5720   -0.8940 o         1 MOL     -0.710698
    171 H80         4.5480    1.1170   -0.4210 hn        1 MOL      0.025238
    172 H81         3.4320    3.5760    0.4460 h1        1 MOL      0.049308
    173 H82         1.8880    1.9020    1.6660 hc        1 MOL     -0.094652
    174 H83         2.6950    0.6790    0.7470 hc        1 MOL     -0.094652
    175 H84         2.3070    1.8900   -1.2680 hc        1 MOL     -0.064631
    176 H85         1.2530    3.0960   -0.4380 hc        1 MOL     -0.064631
    177 N15         4.3360    1.7060    2.9860 n         1 MOL     -0.203959
    178 C54         5.1510    1.6570    4.2190 c3        1 MOL     -0.162959
    179 H86         5.9450    2.4030    4.1580 h1        1 MOL      0.081977
    180 H87         4.5190    1.8690    5.0810 h1        1 MOL      0.081977
    181 H88         5.5920    0.6670    4.3250 h1        1 MOL      0.081977
    182 H89         4.3880    0.8880    2.3890 hn        1 MOL      0.115146
    183 Ca1        -1.6130   -0.9920   -1.5750 Ca        1 MOL      1.769197
    184 O25         0.3350   -0.1960   -3.4060 oh        1 MOL     -0.798781
    185 H90         1.2320   -0.1910   -3.7500 ho        1 MOL      0.383755
    186 H91         0.0400    0.7160   -3.4740 ho        1 MOL      0.383755
    187 O26        -0.6080   -3.4380   -2.0340 oh        1 MOL     -0.798781
    188 H92        -1.1950   -3.9520   -1.4760 ho        1 MOL      0.383755
    189 H93         0.0550   -4.0680   -2.3230 ho        1 MOL      0.383755
@<TRIPOS>BOND
     1    1    2 1   
     2    1    4 1   
     3    1    5 1   
     4    1    6 1   
     5    2    3 2   
     6    2    7 1   
     7    7    8 1   
     8    7   15 1   
     9    8    9 1   
    10    8   11 1   
    11    8   16 1   
    12    9   10 2   
    13    9   19 1   
    14   11   12 1   
    15   11   17 1   
    16   11   18 1   
    17   12   13 1   
    18   12   14 1   
    19   19   20 1   
    20   19   28 1   
    21   20   21 1   
    22   20   23 1   
    23   20   29 1   
    24   21   22 2   
    25   21   41 1   
    26   23   24 1   
    27   23   30 1   
    28   23   31 1   
    29   24   25 1   
    30   24   32 1   
    31   24   33 1   
    32   25   26 1   
    33   25   34 1   
    34   25   35 1   
    35   26   27 1   
    36   26   36 1   
    37   26   37 1   
    38   27   38 1   
    39   27   39 1   
    40   27   40 1   
    41   41   42 1   
    42   41   49 1   
    43   42   43 1   
    44   42   45 1   
    45   42   50 1   
    46   43   44 2   
    47   43   53 1   
    48   45   46 1   
    49   45   51 1   
    50   45   52 1   
    51   46   47 1   
    52   46   48 1   
    53   53   54 1   
    54   53   57 1   
    55   54   55 1   
    56   54   58 1   
    57   54   59 1   
    58   55   56 2   
    59   55   60 1   
    60   60   61 1   
    61   60   68 1   
    62   61   62 1   
    63   61   64 1   
    64   61   69 1   
    65   62   63 2   
    66   62   72 1   
    67   64   65 1   
    68   64   70 1   
    69   64   71 1   
    70   65   66 1   
    71   65   67 1   
    72   72   73 1   
    73   72   76 1   
    74   73   74 1   
    75   73   77 1   
    76   73   78 1   
    77   74   75 2   
    78   74   79 1   
    79   79   80 1   
    80   79   86 1   
    81   80   81 1   
    82   80   83 1   
    83   80   87 1   
    84   81   82 2   
    85   81   93 1   
    86   83   84 1   
    87   83   85 1   
    88   83   88 1   
    89   84   90 1   
    90   84   91 1   
    91   84   92 1   
    92   85   89 1   
    93   93   94 1   
    94   93  101 1   
    95   94   95 1   
    96   94   97 1   
    97   94  102 1   
    98   95   96 2   
    99   95  112 1   
   100   97   98 1   
   101   97   99 1   
   102   97  103 1   
   103   98  100 1   
   104   98  104 1   
   105   98  105 1   
   106   99  106 1   
   107   99  107 1   
   108   99  108 1   
   109  100  109 1   
   110  100  110 1   
   111  100  111 1   
   112  112  113 1   
   113  112  119 1   
   114  113  114 1   
   115  113  116 1   
   116  113  120 1   
   117  114  115 2   
   118  114  126 1   
   119  116  117 1   
   120  116  118 1   
   121  116  121 1   
   122  117  123 1   
   123  117  124 1   
   124  117  125 1   
   125  118  122 1   
   126  126  127 1   
   127  126  133 1   
   128  127  128 1   
   129  127  130 1   
   130  127  134 1   
   131  128  129 2   
   132  128  140 1   
   133  130  131 1   
   134  130  132 1   
   135  130  135 1   
   136  131  137 1   
   137  131  138 1   
   138  131  139 1   
   139  132  136 1   
   140  140  141 1   
   141  140  149 1   
   142  141  142 1   
   143  141  144 1   
   144  141  150 1   
   145  142  143 2   
   146  142  162 1   
   147  144  145 1   
   148  144  151 1   
   149  144  152 1   
   150  145  146 1   
   151  145  153 1   
   152  145  154 1   
   153  146  147 1   
   154  146  155 1   
   155  146  156 1   
   156  147  148 1   
   157  147  157 1   
   158  147  158 1   
   159  148  159 1   
   160  148  160 1   
   161  148  161 1   
   162  162  163 1   
   163  162  171 1   
   164  163  164 1   
   165  163  166 1   
   166  163  172 1   
   167  164  165 2   
   168  164  177 1   
   169  166  167 1   
   170  166  173 1   
   171  166  174 1   
   172  167  168 1   
   173  167  175 1   
   174  167  176 1   
   175  168  169 1   
   176  168  170 1   
   177  177  178 1   
   178  177  182 1   
   179  178  179 1   
   180  178  180 1   
   181  178  181 1   
   182  184  185 1   
   183  184  186 1   
   184  187  188 1   
   185  187  189 1   
@<TRIPOS>SUBSTRUCTURE
     1 MOL         1 TEMP              0 ****  ****    0 ROOT
