@<TRIPOS>MOLECULE
MOL
  189   185     1     0     0
SMALL
resp


@<TRIPOS>ATOM
      1 C1         -0.8000    1.9440    6.4970 c3        1 MOL     -0.346232
      2 C2         -0.9090    1.6670    4.9800 c         1 MOL      0.833394
      3 O1         -0.0050    1.9630    4.2190 o         1 MOL     -0.653128
      4 H1         -0.1940    1.1670    6.9650 hc        1 MOL      0.082322
      5 H2         -0.3310    2.9150    6.6570 hc        1 MOL      0.082322
      6 H3         -1.7950    1.9430    6.9400 hc        1 MOL      0.082322
      7 N1         -2.0910    1.1880    4.5700 n         1 MOL     -0.659793
      8 C3         -2.3740    1.2400    3.1230 c3        1 MOL      0.122221
      9 C4         -2.4210    2.7720    2.7380 c         1 MOL      0.436513
     10 O2         -3.1080    3.6190    3.3960 o         1 MOL     -0.539582
     11 C5         -3.6300    0.4110    2.8190 c3        1 MOL     -0.306054
     12 C6         -3.9700    0.4360    1.3250 c         1 MOL      0.790525
     13 O3         -5.1640    0.0720    1.0650 o         1 MOL     -0.684390
     14 O4         -3.1370    0.7720    0.4470 o         1 MOL     -0.684390
     15 H4         -2.8890    0.8530    5.0920 hn        1 MOL      0.358050
     16 H5         -1.5500    0.8020    2.5560 h1        1 MOL      0.032095
     17 H6         -4.4870    0.6780    3.4450 hc        1 MOL      0.083254
     18 H7         -3.3590   -0.6210    3.0200 hc        1 MOL      0.083254
     19 N2         -1.6110    3.2010    1.7460 n         1 MOL     -0.105432
     20 C7         -1.4070    4.5570    1.2740 c3        1 MOL      0.002286
     21 C8         -2.6100    5.0250    0.4270 c         1 MOL      0.517718
     22 O5         -3.1660    6.0780    0.6450 o         1 MOL     -0.556209
     23 C9         -0.1150    4.7270    0.5490 c3        1 MOL      0.060536
     24 C10         1.0230    5.1220    1.4980 c3        1 MOL     -0.170374
     25 C11         2.3710    5.2750    0.8460 c3        1 MOL     -0.061263
     26 C12         3.5020    5.8350    1.7050 c3        1 MOL     -0.001913
     27 N3          4.7780    5.7520    1.0300 n4        1 MOL     -0.198885
     28 H8         -1.0770    2.4580    1.3010 hn        1 MOL      0.163506
     29 H9         -1.3220    5.1740    2.1700 h1        1 MOL      0.027509
     30 H10        -0.2850    5.4830   -0.2200 hc        1 MOL     -0.002312
     31 H11         0.1210    3.7990    0.0220 hc        1 MOL     -0.002312
     32 H12         1.1390    4.2790    2.1760 hc        1 MOL      0.085092
     33 H13         0.6830    6.0910    1.8570 hc        1 MOL      0.085092
     34 H14         2.2250    6.0120    0.0580 hc        1 MOL      0.044146
     35 H15         2.7430    4.3030    0.5150 hc        1 MOL      0.044146
     36 H16         3.4640    5.2410    2.6160 hx        1 MOL      0.072835
     37 H17         3.2810    6.8590    1.9870 hx        1 MOL      0.072835
     38 H18         5.4650    6.3420    1.4730 hn        1 MOL      0.276720
     39 H19         5.1500    4.8090    1.0820 hn        1 MOL      0.276720
     40 H20         4.7630    6.0190    0.0600 hn        1 MOL      0.276720
     41 N4         -2.9800    4.2060   -0.5560 n         1 MOL     -0.451499
     42 C13        -3.7950    4.6990   -1.7400 c3        1 MOL      0.205370
     43 C14        -5.2220    4.2050   -1.6730 c         1 MOL      0.323663
     44 O6         -6.1920    4.7470   -2.3240 o         1 MOL     -0.516149
     45 C15        -3.0650    4.3010   -3.0410 c3        1 MOL     -0.364961
     46 C16        -2.4010    2.9600   -3.0420 c         1 MOL      0.892683
     47 O7         -2.6960    2.1340   -2.1790 o         1 MOL     -0.745680
     48 O8         -1.5370    2.6820   -3.9510 o         1 MOL     -0.745680
     49 H21        -2.4240    3.3870   -0.7860 hn        1 MOL      0.245819
     50 H22        -3.7990    5.7900   -1.6580 h1        1 MOL      0.066237
     51 H23        -2.3770    5.1060   -3.3100 hc        1 MOL      0.092921
     52 H24        -3.8120    4.2810   -3.8400 hc        1 MOL      0.092921
     53 N5         -5.4210    3.1290   -0.8440 n         1 MOL      0.034602
     54 C17        -6.6990    2.5270   -0.7230 c3        1 MOL     -0.232744
     55 C18        -6.9940    1.5040   -1.7870 c         1 MOL      0.733506
     56 O9         -7.3920    1.8260   -2.8910 o         1 MOL     -0.528844
     57 H25        -4.6360    2.7210   -0.3620 hn        1 MOL      0.112317
     58 H26        -7.5120    3.2240   -0.9500 h1        1 MOL      0.062551
     59 H27        -6.9140    2.0460    0.2240 h1        1 MOL      0.062551
     60 N6         -6.7070    0.2770   -1.3800 n         1 MOL     -0.546704
     61 C19        -7.0690   -0.9680   -2.0680 c3        1 MOL     -0.040790
     62 C20        -7.2800   -2.1660   -1.0690 c         1 MOL      0.495185
     63 O10        -7.7210   -3.2150   -1.4560 o         1 MOL     -0.540615
     64 C21        -6.0760   -1.2460   -3.1920 c3        1 MOL     -0.027638
     65 C22        -4.6130   -0.9810   -2.8650 c         1 MOL      0.628047
     66 O11        -3.7840   -0.3300   -3.5120 o         1 MOL     -0.659332
     67 O12        -4.2410   -1.5080   -1.7560 o         1 MOL     -0.659332
     68 H28        -6.3310    0.1790   -0.4490 hn        1 MOL      0.271805
     69 H29        -8.0360   -0.8500   -2.5510 h1        1 MOL      0.080900
     70 H30        -6.2470   -0.6320   -4.0750 hc        1 MOL      0.022488
     71 H31        -6.2030   -2.2740   -3.5160 hc        1 MOL      0.022488
     72 N7         -6.9050   -2.0000    0.1700 n         1 MOL     -0.259884
     73 C23        -6.7800   -2.9930    1.2210 c3        1 MOL     -0.176722
     74 C24        -5.5740   -3.9190    1.1780 c         1 MOL      0.543680
     75 O13        -5.7560   -4.9940    1.8130 o         1 MOL     -0.564437
     76 H32        -6.4410   -1.1140    0.3680 hn        1 MOL      0.234984
     77 H33        -7.6810   -3.5970    1.2410 h1        1 MOL      0.103944
     78 H34        -6.7490   -2.3650    2.1150 h1        1 MOL      0.103944
     79 N8         -4.5080   -3.6580    0.4000 n         1 MOL     -0.103504
     80 C25        -3.2020   -4.3700    0.5100 c3        1 MOL     -0.407807
     81 C26        -1.9810   -3.4390    0.6720 c         1 MOL      0.843689
     82 O14        -1.9010   -2.3620    0.0900 o         1 MOL     -0.701602
     83 C27        -2.9290   -5.4220   -0.5870 c3        1 MOL      0.488879
     84 C28        -4.0360   -6.4960   -0.7370 c3        1 MOL     -0.544380
     85 O15        -2.9590   -4.7830   -1.8590 oh        1 MOL     -0.623824
     86 H35        -4.6000   -2.8200   -0.1650 hn        1 MOL      0.125796
     87 H36        -3.2550   -4.9410    1.4410 h1        1 MOL      0.094928
     88 H37        -1.9490   -5.8550   -0.3890 h1        1 MOL      0.021284
     89 H38        -3.7840   -4.2900   -1.8690 ho        1 MOL      0.396424
     90 H39        -4.2160   -6.9000    0.2560 hc        1 MOL      0.147141
     91 H40        -4.9640   -6.1310   -1.1570 hc        1 MOL      0.147141
     92 H41        -3.5620   -7.2990   -1.3160 hc        1 MOL      0.147141
     93 N9         -0.9960   -3.8920    1.4700 n         1 MOL     -0.602387
     94 C29         0.2910   -3.2450    1.8120 c3        1 MOL      0.031534
     95 C30         1.3710   -3.8440    0.9810 c         1 MOL      0.484951
     96 O16         1.6680   -5.0440    1.1200 o         1 MOL     -0.526807
     97 C31         0.4240   -3.2130    3.3580 c3        1 MOL     -0.018054
     98 C32        -0.6760   -2.4350    4.1370 c3        1 MOL      0.116279
     99 C33         1.7860   -2.6690    3.7520 c3        1 MOL     -0.258046
    100 C34        -0.5910   -2.4220    5.6170 c3        1 MOL     -0.144490
    101 H42        -1.1970   -4.8130    1.8320 hn        1 MOL      0.301788
    102 H43         0.1290   -2.2060    1.5390 h1        1 MOL      0.142058
    103 H44         0.4350   -4.2070    3.8000 hc        1 MOL      0.046924
    104 H45        -1.6850   -2.7580    3.8740 hc        1 MOL     -0.005439
    105 H46        -0.6320   -1.4090    3.7860 hc        1 MOL     -0.005439
    106 H47         1.9080   -2.6720    4.8370 hc        1 MOL      0.067761
    107 H48         2.6010   -3.2460    3.3170 hc        1 MOL      0.067761
    108 H49         1.8940   -1.6600    3.3670 hc        1 MOL      0.067761
    109 H50        -0.3890   -3.3970    6.0590 hc        1 MOL      0.036305
    110 H51         0.1600   -1.7120    5.9800 hc        1 MOL      0.036305
    111 H52        -1.5140   -2.0990    6.0880 hc        1 MOL      0.036305
    112 N10         2.0420   -3.0630    0.0450 n         1 MOL     -0.075246
    113 C35         3.2460   -3.2930   -0.7410 c3        1 MOL     -0.123217
    114 C36         4.5940   -2.6760   -0.2560 c         1 MOL      0.464401
    115 O17         4.5280   -2.0210    0.7110 o         1 MOL     -0.323338
    116 C37         2.9800   -2.6620   -2.1530 c3        1 MOL      0.329674
    117 C38         1.9530   -3.2320   -3.0690 c3        1 MOL     -0.424470
    118 O18         2.7410   -1.3280   -1.9510 oh        1 MOL     -0.644871
    119 H53         1.6700   -2.1200    0.0240 hn        1 MOL      0.050112
    120 H54         3.3380   -4.3670   -0.8470 h1        1 MOL      0.070012
    121 H55         3.9490   -2.6870   -2.6610 h1        1 MOL     -0.026973
    122 H56         1.9730   -1.1430   -1.4050 ho        1 MOL      0.369104
    123 H57         1.7650   -2.4890   -3.8400 hc        1 MOL      0.120764
    124 H58         2.3750   -4.0790   -3.6160 hc        1 MOL      0.120764
    125 H59         1.0180   -3.4550   -2.5460 hc        1 MOL      0.120764
    126 N11         5.8640   -2.9480   -0.7530 n         1 MOL     -0.483072
    127 C39         7.1230   -2.3030   -0.2490 c3        1 MOL      0.096491
    128 C40         6.9680   -0.7640   -0.2800 c         1 MOL      0.052273
    129 O19         7.5900   -0.0800    0.5660 o         1 MOL     -0.455456
    130 C41         8.3270   -2.6740   -1.0960 c3        1 MOL      0.139974
    131 C42         8.6380   -4.2200   -1.0400 c3        1 MOL     -0.358182
    132 O20         8.0900   -2.3590   -2.4320 oh        1 MOL     -0.616498
    133 H60         5.8900   -3.5520   -1.5590 hn        1 MOL      0.295226
    134 H61         7.3080   -2.5920    0.7920 h1        1 MOL      0.159184
    135 H62         9.1800   -2.1880   -0.6310 h1        1 MOL      0.079339
    136 H63         8.8460   -2.4870   -3.0200 ho        1 MOL      0.430547
    137 H64         7.8950   -4.7960   -1.5800 hc        1 MOL      0.113860
    138 H65         9.6120   -4.4480   -1.4720 hc        1 MOL      0.113860
    139 H66         8.5580   -4.6130   -0.0210 hc        1 MOL      0.113860
    140 N12         6.2120   -0.1460   -1.1590 n         1 MOL      0.000587
    141 C43         5.9560    1.3390   -1.2200 c3        1 MOL     -0.419836
    142 C44         5.1490    1.8870   -0.0710 c         1 MOL      0.686514
    143 O21         4.9210    3.0750    0.0890 o         1 MOL     -0.660107
    144 C45         5.3530    1.7350   -2.5770 c3        1 MOL     -0.020395
    145 C46         6.1350    1.1110   -3.7410 c3        1 MOL     -0.034145
    146 C47         7.5400    1.6420   -4.0060 c3        1 MOL     -0.246384
    147 C48         8.6810    1.0390   -3.1810 c3        1 MOL      0.183705
    148 N13         9.8770    1.8140   -3.4880 n4        1 MOL     -0.399745
    149 H67         5.6510   -0.6710   -1.8150 hn        1 MOL      0.352818
    150 H68         6.8900    1.8920   -1.1760 h1        1 MOL      0.162192
    151 H69         5.4200    2.8120   -2.7630 hc        1 MOL      0.077133
    152 H70         4.2730    1.5640   -2.6200 hc        1 MOL      0.077133
    153 H71         5.6340    1.4560   -4.6460 hc        1 MOL      0.048456
    154 H72         6.0470    0.0360   -3.5730 hc        1 MOL      0.048456
    155 H73         7.5920    2.7170   -3.8500 hc        1 MOL      0.090684
    156 H74         7.6450    1.2660   -5.0260 hc        1 MOL      0.090684
    157 H75         8.8090   -0.0250   -3.3820 hx        1 MOL      0.068837
    158 H76         8.3910    1.2280   -2.1460 hx        1 MOL      0.068837
    159 H77        10.4190    1.4310   -4.2430 hn        1 MOL      0.285567
    160 H78         9.5280    2.7220   -3.7790 hn        1 MOL      0.285567
    161 H79        10.5010    1.9700   -2.7140 hn        1 MOL      0.285567
    162 N14         4.8550    1.0220    0.8950 n         1 MOL     -0.142596
    163 C49         3.7930    1.2290    1.9360 c3        1 MOL     -0.346202
    164 C50         4.2590    0.5650    3.2320 c         1 MOL      0.482274
    165 O22         3.9190    1.0340    4.3070 o         1 MOL     -0.506817
    166 C51         2.4340    0.6120    1.3880 c3        1 MOL      0.269230
    167 C52         2.0290    1.1790    0.0090 c3        1 MOL      0.110634
    168 C53         0.6950    0.6400   -0.4710 c         1 MOL      0.471749
    169 O23         0.5900   -0.6190   -0.6890 o         1 MOL     -0.600408
    170 O24        -0.2560    1.4170   -0.5810 o         1 MOL     -0.600408
    171 H80         5.1010    0.0720    0.6910 hn        1 MOL     -0.027830
    172 H81         3.7030    2.2680    2.2530 h1        1 MOL      0.206942
    173 H82         1.6410    0.8780    2.0820 hc        1 MOL     -0.020943
    174 H83         2.5480   -0.4660    1.3630 hc        1 MOL     -0.020943
    175 H84         2.7300    0.8180   -0.7430 hc        1 MOL     -0.031834
    176 H85         2.0870    2.2570   -0.0690 hc        1 MOL     -0.031834
    177 N15         5.0310   -0.5290    3.1280 n         1 MOL     -0.202193
    178 C54         5.4190   -1.3150    4.2700 c3        1 MOL     -0.340696
    179 H86         4.5930   -1.3550    4.9810 h1        1 MOL      0.131327
    180 H87         5.6700   -2.3260    3.9470 h1        1 MOL      0.131327
    181 H88         6.2870   -0.8590    4.7470 h1        1 MOL      0.131327
    182 H89         5.1010   -0.8760    2.1860 hn        1 MOL      0.258882
    183 Ca1        -1.9720   -0.2710   -1.6410 Ca        1 MOL      1.755728
    184 O25        -0.3270    0.3690   -3.7260 oh        1 MOL     -0.837918
    185 H90         0.5190    0.3040   -4.1720 ho        1 MOL      0.390069
    186 H91        -0.6360    1.2440   -3.9370 ho        1 MOL      0.390069
    187 O26        -1.6830   -2.5840   -3.0850 oh        1 MOL     -0.837918
    188 H92        -2.1620   -3.3580   -2.7820 ho        1 MOL      0.390069
    189 H93        -1.0470   -2.9190   -3.7140 ho        1 MOL      0.390069
@<TRIPOS>BOND
     1    1    2 1   
     2    1    4 1   
     3    1    5 1   
     4    1    6 1   
     5    2    3 2   
     6    2    7 1   
     7    7    8 1   
     8    7   15 1   
     9    8    9 1   
    10    8   11 1   
    11    8   16 1   
    12    9   10 2   
    13    9   19 1   
    14   11   12 1   
    15   11   17 1   
    16   11   18 1   
    17   12   13 1   
    18   12   14 1   
    19   19   20 1   
    20   19   28 1   
    21   20   21 1   
    22   20   23 1   
    23   20   29 1   
    24   21   22 2   
    25   21   41 1   
    26   23   24 1   
    27   23   30 1   
    28   23   31 1   
    29   24   25 1   
    30   24   32 1   
    31   24   33 1   
    32   25   26 1   
    33   25   34 1   
    34   25   35 1   
    35   26   27 1   
    36   26   36 1   
    37   26   37 1   
    38   27   38 1   
    39   27   39 1   
    40   27   40 1   
    41   41   42 1   
    42   41   49 1   
    43   42   43 1   
    44   42   45 1   
    45   42   50 1   
    46   43   44 2   
    47   43   53 1   
    48   45   46 1   
    49   45   51 1   
    50   45   52 1   
    51   46   47 1   
    52   46   48 1   
    53   53   54 1   
    54   53   57 1   
    55   54   55 1   
    56   54   58 1   
    57   54   59 1   
    58   55   56 2   
    59   55   60 1   
    60   60   61 1   
    61   60   68 1   
    62   61   62 1   
    63   61   64 1   
    64   61   69 1   
    65   62   63 2   
    66   62   72 1   
    67   64   65 1   
    68   64   70 1   
    69   64   71 1   
    70   65   66 1   
    71   65   67 1   
    72   72   73 1   
    73   72   76 1   
    74   73   74 1   
    75   73   77 1   
    76   73   78 1   
    77   74   75 2   
    78   74   79 1   
    79   79   80 1   
    80   79   86 1   
    81   80   81 1   
    82   80   83 1   
    83   80   87 1   
    84   81   82 2   
    85   81   93 1   
    86   83   84 1   
    87   83   85 1   
    88   83   88 1   
    89   84   90 1   
    90   84   91 1   
    91   84   92 1   
    92   85   89 1   
    93   93   94 1   
    94   93  101 1   
    95   94   95 1   
    96   94   97 1   
    97   94  102 1   
    98   95   96 2   
    99   95  112 1   
   100   97   98 1   
   101   97   99 1   
   102   97  103 1   
   103   98  100 1   
   104   98  104 1   
   105   98  105 1   
   106   99  106 1   
   107   99  107 1   
   108   99  108 1   
   109  100  109 1   
   110  100  110 1   
   111  100  111 1   
   112  112  113 1   
   113  112  119 1   
   114  113  114 1   
   115  113  116 1   
   116  113  120 1   
   117  114  115 2   
   118  114  126 1   
   119  116  117 1   
   120  116  118 1   
   121  116  121 1   
   122  117  123 1   
   123  117  124 1   
   124  117  125 1   
   125  118  122 1   
   126  126  127 1   
   127  126  133 1   
   128  127  128 1   
   129  127  130 1   
   130  127  134 1   
   131  128  129 2   
   132  128  140 1   
   133  130  131 1   
   134  130  132 1   
   135  130  135 1   
   136  131  137 1   
   137  131  138 1   
   138  131  139 1   
   139  132  136 1   
   140  140  141 1   
   141  140  149 1   
   142  141  142 1   
   143  141  144 1   
   144  141  150 1   
   145  142  143 2   
   146  142  162 1   
   147  144  145 1   
   148  144  151 1   
   149  144  152 1   
   150  145  146 1   
   151  145  153 1   
   152  145  154 1   
   153  146  147 1   
   154  146  155 1   
   155  146  156 1   
   156  147  148 1   
   157  147  157 1   
   158  147  158 1   
   159  148  159 1   
   160  148  160 1   
   161  148  161 1   
   162  162  163 1   
   163  162  171 1   
   164  163  164 1   
   165  163  166 1   
   166  163  172 1   
   167  164  165 2   
   168  164  177 1   
   169  166  167 1   
   170  166  173 1   
   171  166  174 1   
   172  167  168 1   
   173  167  175 1   
   174  167  176 1   
   175  168  169 1   
   176  168  170 1   
   177  177  178 1   
   178  177  182 1   
   179  178  179 1   
   180  178  180 1   
   181  178  181 1   
   182  184  185 1   
   183  184  186 1   
   184  187  188 1   
   185  187  189 1   
@<TRIPOS>SUBSTRUCTURE
     1 MOL         1 TEMP              0 ****  ****    0 ROOT
