@<TRIPOS>MOLECULE
MOL
  189   185     1     0     0
SMALL
resp


@<TRIPOS>ATOM
      1 C1          0.7030    1.6630    5.3730 c3        1 MOL     -0.291005
      2 C2          0.0040    1.7730    3.9760 c         1 MOL      0.578961
      3 O1          0.6750    2.2700    3.0950 o         1 MOL     -0.595672
      4 H1          0.0890    1.0560    6.0380 hc        1 MOL      0.073941
      5 H2          1.6810    1.1960    5.2540 hc        1 MOL      0.073941
      6 H3          0.8240    2.6580    5.7990 hc        1 MOL      0.073941
      7 N1         -1.2680    1.4380    3.8720 n         1 MOL     -0.492528
      8 C3         -2.0100    1.2630    2.6440 c3        1 MOL      0.074368
      9 C4         -2.4960    2.7180    2.3490 c         1 MOL      0.467934
     10 O2         -3.6580    3.0450    2.6080 o         1 MOL     -0.509337
     11 C5         -3.2460    0.2850    2.8680 c3        1 MOL     -0.458315
     12 C6         -4.1210    0.1000    1.6260 c         1 MOL      0.884797
     13 O3         -3.6670    0.4720    0.5050 o         1 MOL     -0.702522
     14 O4         -5.2070   -0.4760    1.7030 o         1 MOL     -0.702522
     15 H4         -1.7450    1.3500    4.7570 hn        1 MOL      0.330472
     16 H5         -1.3610    0.8500    1.8810 h1        1 MOL      0.096531
     17 H6         -3.7970    0.7240    3.7000 hc        1 MOL      0.115730
     18 H7         -2.8040   -0.6810    3.1210 hc        1 MOL      0.115730
     19 N2         -1.7600    3.5460    1.5890 n         1 MOL     -0.280302
     20 C7         -1.9820    4.9710    1.2970 c3        1 MOL     -0.048780
     21 C8         -3.1970    5.3270    0.4050 c         1 MOL      0.501209
     22 O5         -3.5010    6.5350    0.2620 o         1 MOL     -0.559259
     23 C9         -0.7290    5.7320    0.8140 c3        1 MOL     -0.195145
     24 C10         0.6800    5.2920    1.3620 c3        1 MOL      0.450522
     25 C11         1.7680    6.2990    0.9790 c3        1 MOL     -0.238021
     26 C12         3.1660    5.8000    1.3480 c3        1 MOL      0.060741
     27 N3          3.4630    6.0810    2.7660 n4        1 MOL     -0.441117
     28 H8         -0.9450    3.0880    1.1990 hn        1 MOL      0.301294
     29 H9         -2.2360    5.2800    2.3110 h1        1 MOL      0.071605
     30 H10        -0.8990    6.7790    1.0320 hc        1 MOL      0.062987
     31 H11        -0.6850    5.7070   -0.2760 hc        1 MOL      0.062987
     32 H12         0.8990    4.2540    1.1410 hc        1 MOL     -0.074932
     33 H13         0.5650    5.3060    2.4530 hc        1 MOL     -0.074932
     34 H14         1.5540    7.2950    1.3620 hc        1 MOL      0.054983
     35 H15         1.6520    6.3400   -0.1130 hc        1 MOL      0.054983
     36 H16         3.8930    6.2670    0.6770 hx        1 MOL      0.089276
     37 H17         3.1700    4.7320    1.1650 hx        1 MOL      0.089276
     38 H18         2.7520    5.6700    3.3510 hn        1 MOL      0.353524
     39 H19         4.3670    5.7200    3.0350 hn        1 MOL      0.353524
     40 H20         3.4750    7.0700    2.9520 hn        1 MOL      0.353524
     41 N4         -3.8540    4.3070   -0.2350 n         1 MOL     -0.261087
     42 C13        -4.9240    4.3960   -1.2450 c3        1 MOL      0.076482
     43 C14        -6.1070    3.3700   -0.9870 c         1 MOL      0.379999
     44 O6         -7.0770    3.2820   -1.7090 o         1 MOL     -0.505687
     45 C15        -4.2590    4.1210   -2.6170 c3        1 MOL     -0.185499
     46 C16        -3.1810    3.0890   -2.7620 c         1 MOL      0.741108
     47 O7         -3.1090    2.1020   -2.0480 o         1 MOL     -0.629886
     48 O8         -2.3270    3.3290   -3.6370 o         1 MOL     -0.629886
     49 H21        -3.5660    3.3600   -0.0030 hn        1 MOL      0.061671
     50 H22        -5.3350    5.4020   -1.2390 h1        1 MOL      0.094158
     51 H23        -3.8760    5.0950   -2.9250 hc        1 MOL      0.044832
     52 H24        -5.0520    3.9500   -3.3450 hc        1 MOL      0.044832
     53 N5         -6.0230    2.6090    0.1040 n         1 MOL     -0.243130
     54 C17        -7.1560    1.8810    0.5620 c3        1 MOL     -0.054525
     55 C18        -7.6290    0.6250   -0.2240 c         1 MOL      0.508130
     56 O9         -8.7310    0.1650   -0.0440 o         1 MOL     -0.584976
     57 H25        -5.2160    2.6250    0.7170 hn        1 MOL      0.203863
     58 H26        -8.0350    2.5170    0.6290 h1        1 MOL      0.068205
     59 H27        -7.0120    1.5480    1.5890 h1        1 MOL      0.068205
     60 N6         -6.7000    0.0080   -1.0280 n         1 MOL     -0.189920
     61 C19        -7.0280   -1.1280   -1.9220 c3        1 MOL     -0.095005
     62 C20        -7.0270   -2.4750   -1.2070 c         1 MOL      0.428861
     63 O10        -7.1850   -3.4860   -1.8430 o         1 MOL     -0.515443
     64 C21        -6.1190   -1.1200   -3.2050 c3        1 MOL     -0.269965
     65 C22        -4.6250   -1.2270   -2.8970 c         1 MOL      0.764472
     66 O11        -4.2740   -1.6210   -1.7780 o         1 MOL     -0.737130
     67 O12        -3.8070   -0.6760   -3.6960 o         1 MOL     -0.737130
     68 H28        -5.7540    0.3560   -1.0320 hn        1 MOL      0.206676
     69 H29        -8.0340   -0.9620   -2.3040 h1        1 MOL      0.119945
     70 H30        -6.3760   -0.1750   -3.6840 hc        1 MOL      0.096451
     71 H31        -6.3400   -1.9890   -3.8330 hc        1 MOL      0.096451
     72 N7         -6.8560   -2.5220    0.1480 n         1 MOL     -0.205342
     73 C23        -6.9230   -3.6920    0.9840 c3        1 MOL     -0.194608
     74 C24        -5.5340   -4.4360    1.1190 c         1 MOL      0.571448
     75 O13        -5.4740   -5.4950    1.6750 o         1 MOL     -0.556240
     76 H32        -6.7830   -1.5930    0.5400 hn        1 MOL      0.284825
     77 H33        -7.7080   -4.3970    0.7250 h1        1 MOL      0.095403
     78 H34        -7.0530   -3.2470    1.9760 h1        1 MOL      0.095403
     79 N8         -4.4460   -3.8130    0.5580 n         1 MOL     -0.127845
     80 C25        -3.1110   -4.3890    0.3000 c3        1 MOL     -0.423417
     81 C26        -1.9880   -3.4640    0.5480 c         1 MOL      0.711365
     82 O14        -2.1160   -2.2540    0.3720 o         1 MOL     -0.586780
     83 C27        -3.0610   -5.0100   -1.1370 c3        1 MOL      0.609422
     84 C28        -3.9450   -6.3130   -1.1800 c3        1 MOL     -0.296147
     85 O15        -3.5210   -4.1480   -2.1400 oh        1 MOL     -0.722780
     86 H35        -4.5090   -2.8510    0.2550 hn        1 MOL      0.116859
     87 H36        -2.9850   -5.1940    1.0200 h1        1 MOL      0.118435
     88 H37        -2.0210   -5.1950   -1.3910 h1        1 MOL     -0.086061
     89 H38        -3.8670   -3.2940   -1.8510 ho        1 MOL      0.465641
     90 H39        -5.0030   -6.1050   -1.3420 hc        1 MOL      0.068832
     91 H40        -3.4850   -7.0340   -1.8600 hc        1 MOL      0.068832
     92 H41        -3.8030   -6.7820   -0.2110 hc        1 MOL      0.068832
     93 N9         -0.8130   -3.9700    0.9310 n         1 MOL     -0.517629
     94 C29         0.4180   -3.1860    1.3590 c3        1 MOL     -0.040092
     95 C30         1.5810   -3.6880    0.5130 c         1 MOL      0.409852
     96 O16         1.8970   -4.8930    0.3630 o         1 MOL     -0.541308
     97 C31         0.8050   -3.4330    2.8640 c3        1 MOL      0.055068
     98 C32        -0.2280   -2.5500    3.7620 c3        1 MOL      0.055120
     99 C33         2.2000   -2.9290    3.1460 c3        1 MOL     -0.163413
    100 C34        -0.2310   -2.9210    5.2550 c3        1 MOL     -0.241063
    101 H42        -0.6810   -4.9710    1.0030 hn        1 MOL      0.295138
    102 H43         0.2550   -2.1210    1.1620 h1        1 MOL      0.090754
    103 H44         0.6470   -4.4540    3.1810 hc        1 MOL      0.061013
    104 H45        -1.2420   -2.6520    3.3840 hc        1 MOL      0.026663
    105 H46        -0.0490   -1.4800    3.6270 hc        1 MOL      0.026663
    106 H47         2.4380   -3.0370    4.2030 hc        1 MOL      0.028946
    107 H48         2.9830   -3.5260    2.6900 hc        1 MOL      0.028946
    108 H49         2.3330   -1.9150    2.7750 hc        1 MOL      0.028946
    109 H50         0.7190   -2.8070    5.7660 hc        1 MOL      0.057198
    110 H51        -0.9250   -2.2530    5.7490 hc        1 MOL      0.057198
    111 H52        -0.4980   -3.9730    5.3760 hc        1 MOL      0.057198
    112 N10         2.3000   -2.8290   -0.1880 n         1 MOL     -0.133184
    113 C35         3.4800   -3.1400   -0.9890 c3        1 MOL      0.093317
    114 C36         4.7670   -2.9490   -0.1970 c         1 MOL      0.389668
    115 O17         4.7740   -2.3870    0.9230 o         1 MOL     -0.400746
    116 C37         3.5800   -2.3040   -2.2590 c3        1 MOL      0.111583
    117 C38         2.2530   -2.2010   -3.0050 c3        1 MOL     -0.227650
    118 O18         4.0360   -0.9740   -1.8770 oh        1 MOL     -0.539247
    119 H53         2.1680   -1.8410   -0.0210 hn        1 MOL      0.157149
    120 H54         3.5320   -4.1770   -1.3390 h1        1 MOL      0.051559
    121 H55         4.3510   -2.7110   -2.9190 h1        1 MOL      0.042831
    122 H56         3.6580   -0.4470   -2.5830 ho        1 MOL      0.393190
    123 H57         1.6590   -3.1130   -3.0230 hc        1 MOL      0.060542
    124 H58         1.6800   -1.3970   -2.5460 hc        1 MOL      0.060542
    125 H59         2.3340   -2.1090   -4.0930 hc        1 MOL      0.060542
    126 N11         5.8910   -3.3590   -0.7910 n         1 MOL     -0.426193
    127 C39         7.2810   -3.0330   -0.3360 c3        1 MOL      0.059241
    128 C40         7.6450   -1.5880   -0.3000 c         1 MOL      0.494128
    129 O19         8.4480   -1.2810    0.6360 o         1 MOL     -0.501278
    130 C41         8.5090   -3.7720   -0.9430 c3        1 MOL      0.388551
    131 C42         8.1900   -5.3140   -1.0350 c3        1 MOL     -0.380315
    132 O20         8.8350   -3.3760   -2.2370 oh        1 MOL     -0.649035
    133 H60         5.7270   -3.8590   -1.6570 hn        1 MOL      0.289848
    134 H61         7.2500   -3.2570    0.7270 h1        1 MOL      0.077330
    135 H62         9.3430   -3.5570   -0.2650 h1        1 MOL     -0.003341
    136 H63         9.7180   -3.6940   -2.4540 ho        1 MOL      0.413674
    137 H64         8.1530   -5.7350   -0.0360 hc        1 MOL      0.099145
    138 H65         7.3130   -5.5350   -1.6470 hc        1 MOL      0.099145
    139 H66         8.9820   -5.7800   -1.6120 hc        1 MOL      0.099145
    140 N12         7.0700   -0.7390   -1.1980 n         1 MOL     -0.475099
    141 C43         7.2460    0.7540   -0.9910 c3        1 MOL     -0.007818
    142 C44         6.4340    1.1950    0.1840 c         1 MOL      0.241303
    143 O21         6.8620    1.9910    1.0720 o         1 MOL     -0.488168
    144 C45         6.9060    1.4350   -2.3970 c3        1 MOL     -0.061907
    145 C46         7.3020    2.9230   -2.3420 c3        1 MOL      0.235819
    146 C47         7.3660    3.5640   -3.7190 c3        1 MOL     -0.209087
    147 C48         6.0000    3.9480   -4.2520 c3        1 MOL      0.111665
    148 N13         5.9500    5.0500   -5.2510 n4        1 MOL     -0.288050
    149 H67         6.3760   -1.0560   -1.8600 hn        1 MOL      0.283393
    150 H68         8.2840    0.9790   -0.7360 h1        1 MOL      0.144161
    151 H69         5.8430    1.3660   -2.6300 hc        1 MOL      0.024226
    152 H70         7.5000    0.9080   -3.1380 hc        1 MOL      0.024226
    153 H71         8.1880    3.2260   -1.7900 hc        1 MOL     -0.026142
    154 H72         6.4600    3.4490   -1.8790 hc        1 MOL     -0.026142
    155 H73         7.9110    2.9070   -4.3890 hc        1 MOL      0.071605
    156 H74         7.9630    4.4570   -3.5580 hc        1 MOL      0.071605
    157 H75         5.4510    4.2150   -3.3510 hx        1 MOL      0.050024
    158 H76         5.5040    3.0650   -4.6600 hx        1 MOL      0.050024
    159 H77         6.3730    5.9130   -4.9310 hn        1 MOL      0.258599
    160 H78         6.4880    4.8330   -6.0860 hn        1 MOL      0.258599
    161 H79         4.9940    5.1650   -5.5770 hn        1 MOL      0.258599
    162 N14         5.1320    0.7940    0.2260 n         1 MOL     -0.065773
    163 C49         4.1640    1.1550    1.2830 c3        1 MOL     -0.126342
    164 C50         4.6520    0.7690    2.7210 c         1 MOL      0.361070
    165 O22         4.3820    1.4250    3.7960 o         1 MOL     -0.558288
    166 C51         2.8010    0.4920    1.0060 c3        1 MOL      0.263101
    167 C52         2.0730    1.3260   -0.0410 c3        1 MOL     -0.173686
    168 C53         0.6320    0.8350   -0.3270 c         1 MOL      0.766388
    169 O23         0.4750   -0.3700   -0.6690 o         1 MOL     -0.747917
    170 O24        -0.3350    1.5440   -0.2260 o         1 MOL     -0.747917
    171 H80         4.7850    0.1960   -0.5140 hn        1 MOL      0.189021
    172 H81         4.0160    2.2360    1.2080 h1        1 MOL      0.051353
    173 H82         2.0960    0.4980    1.8290 hc        1 MOL      0.025430
    174 H83         3.0560   -0.4650    0.5380 hc        1 MOL      0.025430
    175 H84         2.7110    1.3690   -0.9310 hc        1 MOL     -0.048522
    176 H85         2.0710    2.3040    0.4230 hc        1 MOL     -0.048522
    177 N15         5.4090   -0.3360    2.8750 n         1 MOL      0.047395
    178 C54         6.0570   -0.7570    4.0920 c3        1 MOL     -0.362599
    179 H86         5.3490   -1.3130    4.7060 h1        1 MOL      0.128997
    180 H87         6.9060   -1.3950    3.8500 h1        1 MOL      0.128997
    181 H88         6.4040    0.1180    4.6420 h1        1 MOL      0.128997
    182 H89         5.5010   -0.9240    2.0660 hn        1 MOL      0.104519
    183 Ca1        -2.0510   -0.1130   -1.4270 Ca        1 MOL      1.710691
    184 O25        -0.2610    0.5430   -3.2510 oh        1 MOL     -0.838635
    185 H90         0.3360    0.0160   -2.7330 ho        1 MOL      0.411283
    186 H91         0.2680    0.9000   -3.9530 ho        1 MOL      0.411283
    187 O26        -1.1000   -2.2530   -2.5010 oh        1 MOL     -0.838635
    188 H92        -1.6320   -3.0150   -2.7210 ho        1 MOL      0.411283
    189 H93        -0.2200   -2.4750   -2.8170 ho        1 MOL      0.411283
@<TRIPOS>BOND
     1    1    2 1   
     2    1    4 1   
     3    1    5 1   
     4    1    6 1   
     5    2    3 2   
     6    2    7 1   
     7    7    8 1   
     8    7   15 1   
     9    8    9 1   
    10    8   11 1   
    11    8   16 1   
    12    9   10 2   
    13    9   19 1   
    14   11   12 1   
    15   11   17 1   
    16   11   18 1   
    17   12   13 1   
    18   12   14 1   
    19   19   20 1   
    20   19   28 1   
    21   20   21 1   
    22   20   23 1   
    23   20   29 1   
    24   21   22 2   
    25   21   41 1   
    26   23   24 1   
    27   23   30 1   
    28   23   31 1   
    29   24   25 1   
    30   24   32 1   
    31   24   33 1   
    32   25   26 1   
    33   25   34 1   
    34   25   35 1   
    35   26   27 1   
    36   26   36 1   
    37   26   37 1   
    38   27   38 1   
    39   27   39 1   
    40   27   40 1   
    41   41   42 1   
    42   41   49 1   
    43   42   43 1   
    44   42   45 1   
    45   42   50 1   
    46   43   44 2   
    47   43   53 1   
    48   45   46 1   
    49   45   51 1   
    50   45   52 1   
    51   46   47 1   
    52   46   48 1   
    53   53   54 1   
    54   53   57 1   
    55   54   55 1   
    56   54   58 1   
    57   54   59 1   
    58   55   56 2   
    59   55   60 1   
    60   60   61 1   
    61   60   68 1   
    62   61   62 1   
    63   61   64 1   
    64   61   69 1   
    65   62   63 2   
    66   62   72 1   
    67   64   65 1   
    68   64   70 1   
    69   64   71 1   
    70   65   66 1   
    71   65   67 1   
    72   72   73 1   
    73   72   76 1   
    74   73   74 1   
    75   73   77 1   
    76   73   78 1   
    77   74   75 2   
    78   74   79 1   
    79   79   80 1   
    80   79   86 1   
    81   80   81 1   
    82   80   83 1   
    83   80   87 1   
    84   81   82 2   
    85   81   93 1   
    86   83   84 1   
    87   83   85 1   
    88   83   88 1   
    89   84   90 1   
    90   84   91 1   
    91   84   92 1   
    92   85   89 1   
    93   93   94 1   
    94   93  101 1   
    95   94   95 1   
    96   94   97 1   
    97   94  102 1   
    98   95   96 2   
    99   95  112 1   
   100   97   98 1   
   101   97   99 1   
   102   97  103 1   
   103   98  100 1   
   104   98  104 1   
   105   98  105 1   
   106   99  106 1   
   107   99  107 1   
   108   99  108 1   
   109  100  109 1   
   110  100  110 1   
   111  100  111 1   
   112  112  113 1   
   113  112  119 1   
   114  113  114 1   
   115  113  116 1   
   116  113  120 1   
   117  114  115 2   
   118  114  126 1   
   119  116  117 1   
   120  116  118 1   
   121  116  121 1   
   122  117  123 1   
   123  117  124 1   
   124  117  125 1   
   125  118  122 1   
   126  126  127 1   
   127  126  133 1   
   128  127  128 1   
   129  127  130 1   
   130  127  134 1   
   131  128  129 2   
   132  128  140 1   
   133  130  131 1   
   134  130  132 1   
   135  130  135 1   
   136  131  137 1   
   137  131  138 1   
   138  131  139 1   
   139  132  136 1   
   140  140  141 1   
   141  140  149 1   
   142  141  142 1   
   143  141  144 1   
   144  141  150 1   
   145  142  143 2   
   146  142  162 1   
   147  144  145 1   
   148  144  151 1   
   149  144  152 1   
   150  145  146 1   
   151  145  153 1   
   152  145  154 1   
   153  146  147 1   
   154  146  155 1   
   155  146  156 1   
   156  147  148 1   
   157  147  157 1   
   158  147  158 1   
   159  148  159 1   
   160  148  160 1   
   161  148  161 1   
   162  162  163 1   
   163  162  171 1   
   164  163  164 1   
   165  163  166 1   
   166  163  172 1   
   167  164  165 2   
   168  164  177 1   
   169  166  167 1   
   170  166  173 1   
   171  166  174 1   
   172  167  168 1   
   173  167  175 1   
   174  167  176 1   
   175  168  169 1   
   176  168  170 1   
   177  177  178 1   
   178  177  182 1   
   179  178  179 1   
   180  178  180 1   
   181  178  181 1   
   182  184  185 1   
   183  184  186 1   
   184  187  188 1   
   185  187  189 1   
@<TRIPOS>SUBSTRUCTURE
     1 MOL         1 TEMP              0 ****  ****    0 ROOT
