@<TRIPOS>MOLECULE
MOL
  182   178     1     0     0
SMALL
resp


@<TRIPOS>ATOM
      1 C1         -1.4240   -3.9310    5.1700 c3        1 MOL     -0.393023
      2 C2         -0.8860   -3.4400    3.7900 c         1 MOL      0.664558
      3 O1         -1.6630   -3.3220    2.8660 o         1 MOL     -0.588564
      4 H1         -1.3020   -5.0120    5.2430 hc        1 MOL      0.101501
      5 H2         -0.8650   -3.4480    5.9720 hc        1 MOL      0.101501
      6 H3         -2.4810   -3.6780    5.2600 hc        1 MOL      0.101501
      7 N1          0.4230   -3.2290    3.7400 n         1 MOL     -0.617954
      8 C3          1.1100   -2.7670    2.5360 c3        1 MOL      0.323883
      9 C4          1.4750   -3.9490    1.6000 c         1 MOL      0.503849
     10 O2          2.4560   -4.6530    1.8780 o         1 MOL     -0.552449
     11 C5          2.2600   -1.9100    2.9500 c3        1 MOL     -0.263861
     12 C6          3.0020   -1.3210    1.7700 c         1 MOL      0.911505
     13 O3          2.5920   -1.5980    0.6250 o         1 MOL     -0.737441
     14 O4          3.9680   -0.5590    1.9380 o         1 MOL     -0.737441
     15 H4          0.9630   -3.4780    4.5510 hn        1 MOL      0.339657
     16 H5          0.4430   -2.1460    1.9400 h1        1 MOL     -0.107072
     17 H6          2.9720   -2.4860    3.5510 hc        1 MOL      0.062409
     18 H7          2.0000   -1.0330    3.5500 hc        1 MOL      0.062409
     19 N2          0.7300   -4.2160    0.5050 n         1 MOL     -0.508034
     20 C7          0.6850   -5.5200   -0.2860 c3        1 MOL      0.044706
     21 C8          1.8170   -5.5440   -1.3590 c         1 MOL      0.443840
     22 O5          1.8300   -6.4670   -2.1190 o         1 MOL     -0.560685
     23 C9         -0.7350   -5.8730   -0.8860 c3        1 MOL     -0.188798
     24 C10        -1.6330   -6.2580    0.2720 c3        1 MOL      0.111194
     25 C11        -2.9540   -6.8340   -0.2740 c3        1 MOL     -0.024641
     26 C12        -3.7220   -7.5750    0.8270 c3        1 MOL     -0.028250
     27 N3         -4.1760   -6.7550    1.9830 n4        1 MOL     -0.341096
     28 H8          0.0520   -3.5200    0.2170 hn        1 MOL      0.370398
     29 H9          0.9130   -6.4120    0.2940 h1        1 MOL      0.086200
     30 H10        -0.5880   -6.7750   -1.4800 hc        1 MOL      0.072960
     31 H11        -1.1260   -5.0490   -1.4840 hc        1 MOL      0.072960
     32 H12        -1.7780   -5.3910    0.9230 hc        1 MOL      0.006995
     33 H13        -1.1300   -7.0770    0.7880 hc        1 MOL      0.006995
     34 H14        -2.6480   -7.5060   -1.0860 hc        1 MOL      0.047632
     35 H15        -3.5880   -6.0250   -0.6200 hc        1 MOL      0.047632
     36 H16        -3.0040   -8.3240    1.1700 hx        1 MOL      0.080376
     37 H17        -4.5640   -8.0210    0.2970 hx        1 MOL      0.080376
     38 H18        -5.0090   -7.2570    2.2370 hn        1 MOL      0.332030
     39 H19        -3.5490   -6.9100    2.7540 hn        1 MOL      0.332030
     40 H20        -4.3990   -5.7970    1.7370 hn        1 MOL      0.332030
     41 N4          2.6630   -4.5220   -1.4550 n         1 MOL     -0.076805
     42 C13         4.0540   -4.5230   -2.0300 c3        1 MOL     -0.102561
     43 C14         5.1880   -4.0450   -1.1550 c         1 MOL      0.327280
     44 O6          6.3700   -4.1960   -1.5700 o         1 MOL     -0.479807
     45 C15         4.0890   -3.8660   -3.3850 c3        1 MOL     -0.167770
     46 C16         3.6470   -2.3830   -3.3890 c         1 MOL      0.859600
     47 O7          3.5940   -1.8220   -4.5360 o         1 MOL     -0.756074
     48 O8          3.3490   -1.8190   -2.3440 o         1 MOL     -0.756074
     49 H21         2.3540   -3.7080   -0.9460 hn        1 MOL      0.197577
     50 H22         4.2870   -5.5740   -2.2400 h1        1 MOL      0.126746
     51 H23         3.4210   -4.4110   -4.0510 hc        1 MOL      0.050520
     52 H24         5.0770   -3.8150   -3.8640 hc        1 MOL      0.050520
     53 N5          4.8980   -3.3320   -0.0480 n         1 MOL      0.000599
     54 C17         5.9830   -2.9080    0.8210 c3        1 MOL      0.029488
     55 C18         6.7130   -1.7000    0.2710 c         1 MOL      0.320418
     56 O9          7.9420   -1.5850    0.2500 o         1 MOL     -0.552389
     57 H25         3.9570   -2.9870    0.0380 hn        1 MOL     -0.143299
     58 H26         6.5710   -3.7820    1.0860 h1        1 MOL      0.055210
     59 H27         5.4940   -2.5280    1.7220 h1        1 MOL      0.055210
     60 N6          5.9990   -0.7820   -0.2880 n         1 MOL      0.062440
     61 C19         6.4220    0.5110   -0.7730 c3        1 MOL     -0.058546
     62 C20         6.3740    1.6090    0.2940 c         1 MOL      0.316059
     63 O10         6.8990    2.7280    0.0380 o         1 MOL     -0.502800
     64 C21         5.7880    0.8160   -2.1050 c3        1 MOL     -0.106616
     65 C22         4.4380    1.5490   -2.0180 c         1 MOL      0.536230
     66 N7          4.2460    2.5950   -2.8350 n         1 MOL     -0.834421
     67 O11         3.5460    1.1280   -1.3060 o         1 MOL     -0.516757
     68 H28         5.0100   -0.8370   -0.0810 hn        1 MOL      0.052495
     69 H29         7.5060    0.4640   -0.9050 h1        1 MOL      0.122390
     70 H30         5.7720   -0.1560   -2.6130 hc        1 MOL      0.077175
     71 H31         6.5350    1.3980   -2.6490 hc        1 MOL      0.077175
     72 H32         5.0760    2.9830   -3.2830 hn        1 MOL      0.384367
     73 H33         3.4150    3.1660   -2.7960 hn        1 MOL      0.384367
     74 N8          5.9100    1.3740    1.5150 n         1 MOL     -0.172476
     75 C23         5.8230    2.4360    2.5140 c3        1 MOL     -0.347790
     76 C24         4.4550    3.1350    2.5600 c         1 MOL      0.512593
     77 O12         4.2570    4.0760    3.3930 o         1 MOL     -0.566710
     78 H34         5.4590    0.4770    1.6590 hn        1 MOL      0.264895
     79 H35         6.5310    3.2380    2.3070 h1        1 MOL      0.172204
     80 H36         6.0660    1.8720    3.4110 h1        1 MOL      0.172204
     81 N9          3.5310    2.7350    1.7240 n         1 MOL     -0.143518
     82 C25         2.2150    3.3620    1.4090 c3        1 MOL      0.089339
     83 C26         1.1220    2.3410    1.2480 c         1 MOL      0.262089
     84 O13         1.2590    1.2540    0.7020 o         1 MOL     -0.471127
     85 C27         2.4080    4.2080    0.1970 c3        1 MOL     -0.098661
     86 C28         3.5230    5.2650    0.2740 ca        1 MOL      0.450441
     87 C29         4.6390    5.3320   -0.5620 ca        1 MOL     -0.533470
     88 C30         3.1890    6.3580    1.1140 ca        1 MOL     -0.533470
     89 C31         5.5950    6.3760   -0.4960 ca        1 MOL      0.046666
     90 C32         4.0710    7.4480    1.1340 ca        1 MOL      0.046666
     91 C33         5.2300    7.5060    0.3060 ca        1 MOL      0.090038
     92 O14         5.9950    8.6510    0.3130 oh        1 MOL     -0.474219
     93 H37         3.6370    1.8140    1.3050 hn        1 MOL      0.157241
     94 H38         2.0470    4.0370    2.2470 h1        1 MOL      0.041425
     95 H39         1.5150    4.6650   -0.2370 hc        1 MOL      0.003575
     96 H40         2.6650    3.5590   -0.6510 hc        1 MOL      0.003575
     97 H41         4.8290    4.5460   -1.2860 ha        1 MOL      0.216453
     98 H42         2.2530    6.3820    1.6430 ha        1 MOL      0.216453
     99 H43         6.4090    6.3700   -1.2090 ha        1 MOL      0.091486
    100 H44         3.9190    8.3410    1.7280 ha        1 MOL      0.091486
    101 H45         5.6820    9.4110    0.8150 ho        1 MOL      0.370720
    102 N10        -0.0960    2.7980    1.5190 n         1 MOL     -0.219460
    103 C34        -1.3980    2.2880    1.0730 c3        1 MOL     -0.325288
    104 C35        -2.2990    3.3540    0.2410 c         1 MOL      0.617770
    105 O15        -2.1440    4.5560    0.4420 o         1 MOL     -0.551823
    106 C36        -2.1930    1.5370    2.1790 c3        1 MOL      0.108434
    107 C37        -2.5320    2.5460    3.3540 c3        1 MOL      0.005330
    108 C38        -1.3130    0.3690    2.6450 c3        1 MOL     -0.052391
    109 C39        -3.1560    1.6730    4.4490 c3        1 MOL     -0.211414
    110 H46        -0.1320    3.7790    1.7600 hn        1 MOL      0.249851
    111 H47        -1.1260    1.6200    0.2600 h1        1 MOL      0.215076
    112 H48        -3.1030    1.2220    1.6770 hc        1 MOL     -0.073558
    113 H49        -3.3100    3.2240    2.9960 hc        1 MOL      0.025473
    114 H50        -1.6180    3.0650    3.6250 hc        1 MOL      0.025473
    115 H51        -0.7190    0.7110    3.4990 hc        1 MOL      0.055449
    116 H52        -1.9830   -0.3370    3.1390 hc        1 MOL      0.055449
    117 H53        -0.8120   -0.1070    1.8110 hc        1 MOL      0.055449
    118 H54        -3.7230    0.7860    4.1340 hc        1 MOL      0.050697
    119 H55        -2.4010    1.2840    5.1280 hc        1 MOL      0.050697
    120 H56        -3.8130    2.3260    5.0280 hc        1 MOL      0.050697
    121 N11        -3.0440    2.8970   -0.7360 n         1 MOL     -0.309437
    122 C40        -4.1840    3.6920   -1.3030 c3        1 MOL     -0.014861
    123 C41        -5.5430    3.4470   -0.7110 c         1 MOL      0.544218
    124 O16        -5.6990    2.6580    0.2280 o         1 MOL     -0.474476
    125 C42        -4.2110    3.4560   -2.7960 c3        1 MOL     -0.143112
    126 O17        -4.7420    2.1640   -3.0040 oh        1 MOL     -0.458999
    127 H57        -2.9590    1.9750   -1.1490 hn        1 MOL      0.214771
    128 H58        -3.9320    4.7530   -1.2010 h1        1 MOL      0.075536
    129 H59        -3.2320    3.5210   -3.2500 h1        1 MOL      0.107453
    130 H60        -4.8420    4.1800   -3.3230 h1        1 MOL      0.107453
    131 H61        -4.2180    1.8400   -3.7380 ho        1 MOL      0.393880
    132 N12        -6.5520    4.0390   -1.2920 n         1 MOL     -0.490963
    133 C43        -7.9070    3.9380   -0.8150 c3        1 MOL      0.134483
    134 C44        -8.3810    2.5160   -0.8480 c         1 MOL      0.445757
    135 O18        -9.2540    2.1400   -0.1030 o         1 MOL     -0.517415
    136 C45        -8.7440    5.0040   -1.5280 c3        1 MOL     -0.227947
    137 H62        -6.2850    4.5530   -2.1130 hn        1 MOL      0.323422
    138 H63        -7.9290    4.3080    0.2200 h1        1 MOL      0.088927
    139 H64        -8.5040    4.9090   -2.5910 hc        1 MOL      0.073691
    140 H65        -9.8010    4.9260   -1.2850 hc        1 MOL      0.073691
    141 H66        -8.4020    6.0220   -1.3730 hc        1 MOL      0.073691
    142 N13        -7.9240    1.7210   -1.7920 n         1 MOL     -0.287492
    143 C46        -8.1220    0.3090   -2.0450 c3        1 MOL      0.112881
    144 C47        -7.2940   -0.6470   -1.1660 c         1 MOL      0.282276
    145 O19        -7.8940   -1.6480   -0.7460 o         1 MOL     -0.507498
    146 C48        -7.6520    0.0400   -3.5200 c3        1 MOL     -0.244588
    147 H67        -7.1340    2.0740   -2.3090 hn        1 MOL      0.176515
    148 H68        -9.1990    0.1980   -1.8860 h1        1 MOL      0.101467
    149 H69        -8.2930    0.6290   -4.1690 hc        1 MOL      0.067926
    150 H70        -6.6260    0.3960   -3.6500 hc        1 MOL      0.067926
    151 H71        -7.8000   -1.0090   -3.7740 hc        1 MOL      0.067926
    152 N14        -6.0360   -0.4410   -0.9520 n         1 MOL     -0.079481
    153 C49        -5.3430   -1.2630    0.1290 c3        1 MOL     -0.258401
    154 C50        -5.8680   -1.0110    1.5340 c         1 MOL      0.468599
    155 O20        -5.7680   -1.9390    2.3930 o         1 MOL     -0.552299
    156 C51        -3.8880   -0.9650    0.0530 c3        1 MOL      0.115467
    157 C52        -3.1800   -1.4160   -1.1900 c3        1 MOL     -0.143914
    158 C53        -1.7030   -1.0440   -1.0930 c         1 MOL      0.851574
    159 O21        -0.8400   -1.6680   -0.4570 o         1 MOL     -0.818185
    160 O22        -1.2430   -0.0720   -1.7520 o         1 MOL     -0.818185
    161 H72        -5.4130    0.2920   -1.2510 hn        1 MOL      0.171463
    162 H73        -5.4590   -2.3290   -0.0410 h1        1 MOL      0.154602
    163 H74        -3.5100   -1.4380    0.9580 hc        1 MOL      0.040353
    164 H75        -3.7740    0.1150    0.1640 hc        1 MOL      0.040353
    165 H76        -3.7020   -1.0090   -2.0550 hc        1 MOL      0.001762
    166 H77        -3.2470   -2.4940   -1.3650 hc        1 MOL      0.001762
    167 N15        -6.5210    0.1540    1.8430 n         1 MOL     -0.095205
    168 C54        -7.0700    0.4190    3.1930 c3        1 MOL     -0.240120
    169 H78        -6.4790    1.1940    3.6790 h1        1 MOL      0.103882
    170 H79        -8.1040    0.7520    3.1060 h1        1 MOL      0.103882
    171 H80        -7.0310   -0.4940    3.7870 h1        1 MOL      0.103882
    172 H81        -6.5080    0.9360    1.2030 hn        1 MOL      0.168727
    173 Ca1         1.3870   -0.4040   -1.3820 Ca        1 MOL      1.824234
    174 O23         0.6650    2.2250   -1.8810 oh        1 MOL     -0.829184
    175 H82         0.0700    2.9240   -1.6250 ho        1 MOL      0.395320
    176 H83         1.3030    2.6600   -2.4480 ho        1 MOL      0.395320
    177 O24         0.4870   -2.4800   -3.0520 oh        1 MOL     -0.829184
    178 H84        -0.1320   -2.1660   -3.7060 ho        1 MOL      0.395320
    179 H85         0.6520   -3.3880   -3.3160 ho        1 MOL      0.395320
    180 O25         2.0100    0.1770   -3.9540 oh        1 MOL     -0.829184
    181 H86         1.8010    0.7770   -4.6660 ho        1 MOL      0.395320
    182 H87         2.8360   -0.2310   -4.2280 ho        1 MOL      0.395320
@<TRIPOS>BOND
     1    1    2 1   
     2    1    4 1   
     3    1    5 1   
     4    1    6 1   
     5    2    3 2   
     6    2    7 1   
     7    7    8 1   
     8    7   15 1   
     9    8    9 1   
    10    8   11 1   
    11    8   16 1   
    12    9   10 2   
    13    9   19 1   
    14   11   12 1   
    15   11   17 1   
    16   11   18 1   
    17   12   13 1   
    18   12   14 1   
    19   19   20 1   
    20   19   28 1   
    21   20   21 1   
    22   20   23 1   
    23   20   29 1   
    24   21   22 2   
    25   21   41 1   
    26   23   24 1   
    27   23   30 1   
    28   23   31 1   
    29   24   25 1   
    30   24   32 1   
    31   24   33 1   
    32   25   26 1   
    33   25   34 1   
    34   25   35 1   
    35   26   27 1   
    36   26   36 1   
    37   26   37 1   
    38   27   38 1   
    39   27   39 1   
    40   27   40 1   
    41   41   42 1   
    42   41   49 1   
    43   42   43 1   
    44   42   45 1   
    45   42   50 1   
    46   43   44 2   
    47   43   53 1   
    48   45   46 1   
    49   45   51 1   
    50   45   52 1   
    51   46   47 1   
    52   46   48 1   
    53   53   54 1   
    54   53   57 1   
    55   54   55 1   
    56   54   58 1   
    57   54   59 1   
    58   55   56 2   
    59   55   60 1   
    60   60   61 1   
    61   60   68 1   
    62   61   62 1   
    63   61   64 1   
    64   61   69 1   
    65   62   63 2   
    66   62   74 1   
    67   64   65 1   
    68   64   70 1   
    69   64   71 1   
    70   65   66 1   
    71   65   67 2   
    72   66   72 1   
    73   66   73 1   
    74   74   75 1   
    75   74   78 1   
    76   75   76 1   
    77   75   79 1   
    78   75   80 1   
    79   76   77 2   
    80   76   81 1   
    81   81   82 1   
    82   81   93 1   
    83   82   83 1   
    84   82   85 1   
    85   82   94 1   
    86   83   84 2   
    87   83  102 1   
    88   85   86 1   
    89   85   95 1   
    90   85   96 1   
    91   86   87 ar  
    92   86   88 ar  
    93   87   89 ar  
    94   87   97 1   
    95   88   90 ar  
    96   88   98 1   
    97   89   91 ar  
    98   89   99 1   
    99   90   91 ar  
   100   90  100 1   
   101   91   92 1   
   102   92  101 1   
   103  102  103 1   
   104  102  110 1   
   105  103  104 1   
   106  103  106 1   
   107  103  111 1   
   108  104  105 2   
   109  104  121 1   
   110  106  107 1   
   111  106  108 1   
   112  106  112 1   
   113  107  109 1   
   114  107  113 1   
   115  107  114 1   
   116  108  115 1   
   117  108  116 1   
   118  108  117 1   
   119  109  118 1   
   120  109  119 1   
   121  109  120 1   
   122  121  122 1   
   123  121  127 1   
   124  122  123 1   
   125  122  125 1   
   126  122  128 1   
   127  123  124 2   
   128  123  132 1   
   129  125  126 1   
   130  125  129 1   
   131  125  130 1   
   132  126  131 1   
   133  132  133 1   
   134  132  137 1   
   135  133  134 1   
   136  133  136 1   
   137  133  138 1   
   138  134  135 2   
   139  134  142 1   
   140  136  139 1   
   141  136  140 1   
   142  136  141 1   
   143  142  143 1   
   144  142  147 1   
   145  143  144 1   
   146  143  146 1   
   147  143  148 1   
   148  144  145 2   
   149  144  152 1   
   150  146  149 1   
   151  146  150 1   
   152  146  151 1   
   153  152  153 1   
   154  152  161 1   
   155  153  154 1   
   156  153  156 1   
   157  153  162 1   
   158  154  155 2   
   159  154  167 1   
   160  156  157 1   
   161  156  163 1   
   162  156  164 1   
   163  157  158 1   
   164  157  165 1   
   165  157  166 1   
   166  158  159 1   
   167  158  160 1   
   168  167  168 1   
   169  167  172 1   
   170  168  169 1   
   171  168  170 1   
   172  168  171 1   
   173  174  175 1   
   174  174  176 1   
   175  177  178 1   
   176  177  179 1   
   177  180  181 1   
   178  180  182 1   
@<TRIPOS>SUBSTRUCTURE
     1 MOL         1 TEMP              0 ****  ****    0 ROOT
