@<TRIPOS>MOLECULE
MOL
  189   185     1     0     0
SMALL
resp


@<TRIPOS>ATOM
      1 C1          0.3090    3.1800   -5.6650 c3        1 MOL     -0.340408
      2 C2          0.5840    2.7850   -4.2100 c         1 MOL      0.705889
      3 O1         -0.2540    3.1690   -3.3790 o         1 MOL     -0.584553
      4 H1          1.0650    3.8900   -5.9970 hc        1 MOL      0.080648
      5 H2          0.3430    2.2920   -6.2960 hc        1 MOL      0.080648
      6 H3         -0.6780    3.6390   -5.7380 hc        1 MOL      0.080648
      7 N1          1.7970    2.2690   -3.9620 n         1 MOL     -0.589893
      8 C3          2.2880    2.0120   -2.5570 c3        1 MOL      0.127546
      9 C4          2.5780    3.2210   -1.6610 c         1 MOL      0.301295
     10 O2          3.4200    4.0950   -1.9930 o         1 MOL     -0.560537
     11 C5          3.5450    1.0720   -2.5860 c3        1 MOL     -0.204780
     12 C6          4.0090    0.6250   -1.1520 c         1 MOL      0.758555
     13 O3          3.4390    0.9210   -0.0910 o         1 MOL     -0.697033
     14 O4          4.8930   -0.2390   -1.0530 o         1 MOL     -0.697033
     15 H4          2.3870    1.9490   -4.7130 hn        1 MOL      0.356379
     16 H5          1.5390    1.3720   -2.0920 h1        1 MOL      0.035270
     17 H6          4.3410    1.7020   -2.9870 hc        1 MOL      0.061089
     18 H7          3.4390    0.2890   -3.3360 hc        1 MOL      0.061089
     19 N2          1.7940    3.4770   -0.6440 n         1 MOL     -0.056126
     20 C7          1.7900    4.6830    0.2360 c3        1 MOL     -0.146289
     21 C8          2.6320    4.6730    1.5230 c         1 MOL      0.613826
     22 O5          2.8160    5.7440    2.1070 o         1 MOL     -0.569657
     23 C9          0.2840    4.8700    0.6520 c3        1 MOL     -0.000759
     24 C10        -0.7710    4.9730   -0.4580 c3        1 MOL      0.085336
     25 C11        -0.7350    6.2860   -1.2900 c3        1 MOL     -0.182877
     26 C12         0.2030    6.1230   -2.5120 c3        1 MOL      0.263348
     27 N3          0.4650    7.4150   -3.0820 n4        1 MOL     -0.543098
     28 H8          1.3080    2.6450   -0.3370 hn        1 MOL      0.165286
     29 H9          2.0640    5.5970   -0.2880 h1        1 MOL      0.065804
     30 H10         0.1320    5.8130    1.1840 hc        1 MOL      0.012025
     31 H11         0.0110    4.1440    1.4260 hc        1 MOL      0.012025
     32 H12        -1.7520    4.9340    0.0290 hc        1 MOL      0.032290
     33 H13        -0.8300    4.0980   -1.1160 hc        1 MOL      0.032290
     34 H14        -0.3700    7.0730   -0.6410 hc        1 MOL      0.042169
     35 H15        -1.7180    6.6150   -1.6310 hc        1 MOL      0.042169
     36 H16        -0.2540    5.4050   -3.1930 hx        1 MOL      0.058724
     37 H17         1.1740    5.7050   -2.2780 hx        1 MOL      0.058724
     38 H18        -0.4050    7.9210   -3.1230 hn        1 MOL      0.355327
     39 H19         1.1370    8.0450   -2.6600 hn        1 MOL      0.355327
     40 H20         0.8540    7.2610   -4.0030 hn        1 MOL      0.355327
     41 N4          3.3160    3.5430    1.8360 n         1 MOL     -0.337191
     42 C13         4.4140    3.5340    2.8390 c3        1 MOL     -0.047508
     43 C14         5.7120    2.8230    2.4170 c         1 MOL      0.465612
     44 O6          6.6960    2.8310    3.1620 o         1 MOL     -0.507879
     45 C15         3.9080    2.9580    4.1890 c3        1 MOL     -0.272408
     46 C16         3.1460    1.6640    4.0380 c         1 MOL      0.847626
     47 O7          2.3960    1.3010    4.9600 o         1 MOL     -0.691494
     48 O8          3.2430    0.9060    3.0830 o         1 MOL     -0.691494
     49 H21         3.0950    2.6900    1.3420 hn        1 MOL      0.134547
     50 H22         4.7210    4.5660    3.0250 h1        1 MOL      0.136032
     51 H23         3.1880    3.6520    4.6030 hc        1 MOL      0.082862
     52 H24         4.7010    2.7180    4.8900 hc        1 MOL      0.082862
     53 N5          5.8870    2.2830    1.1970 n         1 MOL     -0.412110
     54 C17         7.1690    1.8400    0.6270 c3        1 MOL      0.049083
     55 C18         7.5020    0.4280    1.1570 c         1 MOL      0.443610
     56 O9          8.7030    0.1640    1.3350 o         1 MOL     -0.582093
     57 H25         5.0970    2.2850    0.5620 hn        1 MOL      0.297751
     58 H26         8.0200    2.5060    0.7770 h1        1 MOL      0.054677
     59 H27         7.1080    1.7640   -0.4560 h1        1 MOL      0.054677
     60 N6          6.5170   -0.4060    1.5520 n         1 MOL     -0.070365
     61 C19         6.8030   -1.7990    1.9950 c3        1 MOL     -0.208984
     62 C20         6.8000   -2.8920    0.9350 c         1 MOL      0.578524
     63 O10         6.7270   -4.0410    1.2850 o         1 MOL     -0.544143
     64 C21         5.7990   -2.1970    3.1860 c3        1 MOL     -0.146276
     65 C22         4.3620   -2.2400    2.6840 c         1 MOL      0.744874
     66 O11         4.0860   -2.3420    1.4660 o         1 MOL     -0.727863
     67 O12         3.4460   -2.0940    3.5100 o         1 MOL     -0.727863
     68 H28         5.5950   -0.1920    1.1990 hn        1 MOL      0.085447
     69 H29         7.8110   -1.7850    2.3930 h1        1 MOL      0.148769
     70 H30         5.8460   -1.4060    3.9350 hc        1 MOL      0.064966
     71 H31         6.1530   -3.0670    3.7260 hc        1 MOL      0.064966
     72 N7          6.7820   -2.5340   -0.3580 n         1 MOL     -0.359338
     73 C23         6.8710   -3.3380   -1.5210 c3        1 MOL     -0.253508
     74 C24         5.4900   -3.9350   -1.9980 c         1 MOL      0.543429
     75 O13         5.5130   -4.8020   -2.9100 o         1 MOL     -0.567039
     76 H32         6.3690   -1.6300   -0.5720 hn        1 MOL      0.277845
     77 H33         7.5870   -4.1410   -1.3320 h1        1 MOL      0.133817
     78 H34         7.1570   -2.7280   -2.3850 h1        1 MOL      0.133817
     79 N8          4.3760   -3.5660   -1.2890 n         1 MOL     -0.277623
     80 C25         3.0560   -4.0500   -1.6960 c3        1 MOL     -0.074967
     81 C26         1.9480   -3.0020   -1.5670 c         1 MOL      0.660395
     82 O14         2.0560   -1.9210   -0.8920 o         1 MOL     -0.691593
     83 C27         2.6030   -5.1770   -0.7340 c3        1 MOL      0.307947
     84 C28         3.3430   -6.5190   -1.0070 c3        1 MOL     -0.424712
     85 O15         2.7610   -4.9260    0.7050 oh        1 MOL     -0.590696
     86 H35         4.4140   -2.9270   -0.5040 hn        1 MOL      0.262119
     87 H36         3.0340   -4.4070   -2.7260 h1        1 MOL      0.091533
     88 H37         1.5430   -5.3790   -0.9010 h1        1 MOL      0.055431
     89 H38         3.6790   -4.6770    0.7740 ho        1 MOL      0.401880
     90 H39         3.1690   -6.7880   -2.0570 hc        1 MOL      0.113867
     91 H40         4.4140   -6.3850   -0.8410 hc        1 MOL      0.113867
     92 H41         3.0110   -7.3310   -0.3580 hc        1 MOL      0.113867
     93 N9          0.7550   -3.2960   -2.1190 n         1 MOL     -0.583567
     94 C29        -0.3510   -2.3620   -2.2230 c3        1 MOL     -0.071499
     95 C30        -1.5970   -3.1420   -1.6630 c         1 MOL      0.649219
     96 O16        -2.0320   -4.1630   -2.2260 o         1 MOL     -0.570286
     97 C31        -0.6990   -2.1140   -3.7100 c3        1 MOL      0.234114
     98 C32         0.3980   -1.5160   -4.6440 c3        1 MOL      0.197797
     99 C33        -1.8810   -1.0810   -3.7950 c3        1 MOL     -0.418648
    100 C34         0.0600   -1.5020   -6.1140 c3        1 MOL     -0.317509
    101 H42         0.5640   -4.2040   -2.5320 hn        1 MOL      0.287823
    102 H43        -0.1420   -1.4310   -1.7140 h1        1 MOL      0.175607
    103 H44        -0.9570   -3.0500   -4.2150 hc        1 MOL     -0.015403
    104 H45         1.3170   -2.0980   -4.5580 hc        1 MOL     -0.037926
    105 H46         0.5380   -0.4740   -4.3380 hc        1 MOL     -0.037926
    106 H47        -1.4030   -0.1630   -3.4400 hc        1 MOL      0.085462
    107 H48        -2.2050   -1.0270   -4.8410 hc        1 MOL      0.085462
    108 H49        -2.7440   -1.3150   -3.1760 hc        1 MOL      0.085462
    109 H50        -0.8270   -0.8800   -6.2140 hc        1 MOL      0.070989
    110 H51         0.9270   -1.0480   -6.5960 hc        1 MOL      0.070989
    111 H52        -0.2910   -2.4540   -6.5210 hc        1 MOL      0.070989
    112 N10        -2.1170   -2.6460   -0.5400 n         1 MOL     -0.487421
    113 C35        -3.4540   -2.9610    0.0750 c3        1 MOL     -0.008180
    114 C36        -4.6040   -2.3670   -0.8020 c         1 MOL      0.371554
    115 O17        -4.3770   -1.4720   -1.6130 o         1 MOL     -0.338968
    116 C37        -3.6080   -2.4410    1.5230 c3        1 MOL      0.324185
    117 C38        -2.5660   -3.2410    2.4060 c3        1 MOL     -0.507401
    118 O18        -3.2960   -1.0620    1.7090 oh        1 MOL     -0.655788
    119 H53        -1.6380   -1.7980   -0.2630 hn        1 MOL      0.302294
    120 H54        -3.6030   -4.0330    0.1530 h1        1 MOL      0.107112
    121 H55        -4.6090   -2.6380    1.9120 h1        1 MOL      0.031164
    122 H56        -2.3800   -0.9450    1.4290 ho        1 MOL      0.492174
    123 H57        -1.5580   -3.1630    2.0010 hc        1 MOL      0.131885
    124 H58        -2.3810   -2.8540    3.4040 hc        1 MOL      0.131885
    125 H59        -2.8930   -4.2780    2.4740 hc        1 MOL      0.131885
    126 N11        -5.8710   -2.7600   -0.4900 n         1 MOL     -0.295107
    127 C39        -7.0610   -2.1020   -0.9680 c3        1 MOL     -0.023826
    128 C40        -7.3310   -0.6400   -0.4770 c         1 MOL      0.370477
    129 O19        -7.8890    0.1080   -1.2600 o         1 MOL     -0.479006
    130 C41        -8.2370   -3.1030   -0.8050 c3        1 MOL      0.480125
    131 C42        -9.2940   -2.8500   -1.8870 c3        1 MOL     -0.451103
    132 O20        -7.8080   -4.4430   -0.7040 oh        1 MOL     -0.616119
    133 H60        -6.0270   -3.5230    0.1560 hn        1 MOL      0.193125
    134 H61        -7.0220   -1.9670   -2.0510 h1        1 MOL      0.096600
    135 H62        -8.6630   -2.8380    0.1700 h1        1 MOL     -0.087393
    136 H63        -8.5550   -4.9240   -0.3510 ho        1 MOL      0.394798
    137 H64        -8.9880   -3.2350   -2.8650 hc        1 MOL      0.118539
    138 H65       -10.1560   -3.3990   -1.5210 hc        1 MOL      0.118539
    139 H66        -9.6380   -1.8200   -1.9650 hc        1 MOL      0.118539
    140 N12        -6.8700   -0.3140    0.7280 n         1 MOL     -0.312180
    141 C43        -7.1130    0.9900    1.3370 c3        1 MOL      0.057402
    142 C44        -6.0840    1.9550    0.6540 c         1 MOL      0.372556
    143 O21        -6.4180    3.1100    0.4560 o         1 MOL     -0.504474
    144 C45        -6.8470    0.8760    2.8500 c3        1 MOL     -0.059077
    145 C46        -8.1910    0.5260    3.5340 c3        1 MOL      0.028135
    146 C47        -8.0440    0.2920    5.0450 c3        1 MOL      0.008600
    147 C48        -9.2280   -0.5210    5.7050 c3        1 MOL      0.055406
    148 N13        -9.2840   -0.1290    7.1300 n4        1 MOL     -0.325440
    149 H67        -6.3940   -1.0120    1.2850 hn        1 MOL      0.221637
    150 H68        -8.1350    1.3120    1.1570 h1        1 MOL      0.092471
    151 H69        -6.3480    1.7860    3.2030 hc        1 MOL      0.047063
    152 H70        -6.1230    0.1090    3.1310 hc        1 MOL      0.047063
    153 H71        -8.5610   -0.4170    3.1510 hc        1 MOL      0.005798
    154 H72        -8.9290    1.3090    3.4010 hc        1 MOL      0.005798
    155 H73        -7.9420    1.2370    5.5700 hc        1 MOL      0.021390
    156 H74        -7.1810   -0.3440    5.2720 hc        1 MOL      0.021390
    157 H75        -9.0180   -1.5630    5.4880 hx        1 MOL      0.072486
    158 H76       -10.1830   -0.2420    5.2390 hx        1 MOL      0.072486
    159 H77        -9.3360    0.8660    7.2520 hn        1 MOL      0.283040
    160 H78       -10.1200   -0.4810    7.5600 hn        1 MOL      0.283040
    161 H79        -8.4680   -0.4000    7.6660 hn        1 MOL      0.283040
    162 N14        -4.8820    1.5320    0.2820 n         1 MOL     -0.038256
    163 C49        -3.9780    2.3150   -0.5570 c3        1 MOL     -0.221673
    164 C50        -4.5920    2.5030   -2.0020 c         1 MOL      0.490174
    165 O22        -4.6110    3.6280   -2.5100 o         1 MOL     -0.529646
    166 C51        -2.6320    1.5880   -0.7300 c3        1 MOL     -0.196287
    167 C52        -1.8130    1.6380    0.5650 c3        1 MOL      0.163158
    168 C53        -0.5820    0.6940    0.5150 c         1 MOL      0.566542
    169 O23        -0.6990   -0.5320    0.7790 o         1 MOL     -0.645986
    170 O24         0.5470    1.1850    0.3610 o         1 MOL     -0.645986
    171 H80        -4.5470    0.6250    0.5520 hn        1 MOL      0.085960
    172 H81        -3.8770    3.3160   -0.1290 h1        1 MOL      0.125858
    173 H82        -2.0250    2.0380   -1.5150 hc        1 MOL      0.058130
    174 H83        -2.7480    0.5320   -0.9700 hc        1 MOL      0.058130
    175 H84        -2.4710    1.2350    1.3380 hc        1 MOL     -0.043931
    176 H85        -1.4490    2.6110    0.8980 hc        1 MOL     -0.043931
    177 N15        -5.1600    1.4080   -2.5780 n         1 MOL     -0.099921
    178 C54        -5.7220    1.4620   -3.9160 c3        1 MOL     -0.215692
    179 H86        -6.2550    0.5330   -4.1240 h1        1 MOL      0.092276
    180 H87        -6.4140    2.3010   -3.9870 h1        1 MOL      0.092276
    181 H88        -4.9200    1.5900   -4.6430 h1        1 MOL      0.092276
    182 H89        -5.1360    0.5100   -2.1190 hn        1 MOL      0.134239
    183 Ca1         2.0040   -0.6830    1.3940 Ca        1 MOL      1.793272
    184 O25         0.9480   -3.2510    1.8100 oh        1 MOL     -0.908345
    185 H90         0.4340   -3.6970    2.4850 ho        1 MOL      0.419199
    186 H91         1.7160   -3.8100    1.6950 ho        1 MOL      0.419199
    187 O26         0.7430   -0.6160    3.7160 oh        1 MOL     -0.908345
    188 H92         0.1880   -1.0400    4.3700 ho        1 MOL      0.419199
    189 H93         1.5270   -0.3640    4.2080 ho        1 MOL      0.419199
@<TRIPOS>BOND
     1    1    2 1   
     2    1    4 1   
     3    1    5 1   
     4    1    6 1   
     5    2    3 2   
     6    2    7 1   
     7    7    8 1   
     8    7   15 1   
     9    8    9 1   
    10    8   11 1   
    11    8   16 1   
    12    9   10 2   
    13    9   19 1   
    14   11   12 1   
    15   11   17 1   
    16   11   18 1   
    17   12   13 1   
    18   12   14 1   
    19   19   20 1   
    20   19   28 1   
    21   20   21 1   
    22   20   23 1   
    23   20   29 1   
    24   21   22 2   
    25   21   41 1   
    26   23   24 1   
    27   23   30 1   
    28   23   31 1   
    29   24   25 1   
    30   24   32 1   
    31   24   33 1   
    32   25   26 1   
    33   25   34 1   
    34   25   35 1   
    35   26   27 1   
    36   26   36 1   
    37   26   37 1   
    38   27   38 1   
    39   27   39 1   
    40   27   40 1   
    41   41   42 1   
    42   41   49 1   
    43   42   43 1   
    44   42   45 1   
    45   42   50 1   
    46   43   44 2   
    47   43   53 1   
    48   45   46 1   
    49   45   51 1   
    50   45   52 1   
    51   46   47 1   
    52   46   48 1   
    53   53   54 1   
    54   53   57 1   
    55   54   55 1   
    56   54   58 1   
    57   54   59 1   
    58   55   56 2   
    59   55   60 1   
    60   60   61 1   
    61   60   68 1   
    62   61   62 1   
    63   61   64 1   
    64   61   69 1   
    65   62   63 2   
    66   62   72 1   
    67   64   65 1   
    68   64   70 1   
    69   64   71 1   
    70   65   66 1   
    71   65   67 1   
    72   72   73 1   
    73   72   76 1   
    74   73   74 1   
    75   73   77 1   
    76   73   78 1   
    77   74   75 2   
    78   74   79 1   
    79   79   80 1   
    80   79   86 1   
    81   80   81 1   
    82   80   83 1   
    83   80   87 1   
    84   81   82 2   
    85   81   93 1   
    86   83   84 1   
    87   83   85 1   
    88   83   88 1   
    89   84   90 1   
    90   84   91 1   
    91   84   92 1   
    92   85   89 1   
    93   93   94 1   
    94   93  101 1   
    95   94   95 1   
    96   94   97 1   
    97   94  102 1   
    98   95   96 2   
    99   95  112 1   
   100   97   98 1   
   101   97   99 1   
   102   97  103 1   
   103   98  100 1   
   104   98  104 1   
   105   98  105 1   
   106   99  106 1   
   107   99  107 1   
   108   99  108 1   
   109  100  109 1   
   110  100  110 1   
   111  100  111 1   
   112  112  113 1   
   113  112  119 1   
   114  113  114 1   
   115  113  116 1   
   116  113  120 1   
   117  114  115 2   
   118  114  126 1   
   119  116  117 1   
   120  116  118 1   
   121  116  121 1   
   122  117  123 1   
   123  117  124 1   
   124  117  125 1   
   125  118  122 1   
   126  126  127 1   
   127  126  133 1   
   128  127  128 1   
   129  127  130 1   
   130  127  134 1   
   131  128  129 2   
   132  128  140 1   
   133  130  131 1   
   134  130  132 1   
   135  130  135 1   
   136  131  137 1   
   137  131  138 1   
   138  131  139 1   
   139  132  136 1   
   140  140  141 1   
   141  140  149 1   
   142  141  142 1   
   143  141  144 1   
   144  141  150 1   
   145  142  143 2   
   146  142  162 1   
   147  144  145 1   
   148  144  151 1   
   149  144  152 1   
   150  145  146 1   
   151  145  153 1   
   152  145  154 1   
   153  146  147 1   
   154  146  155 1   
   155  146  156 1   
   156  147  148 1   
   157  147  157 1   
   158  147  158 1   
   159  148  159 1   
   160  148  160 1   
   161  148  161 1   
   162  162  163 1   
   163  162  171 1   
   164  163  164 1   
   165  163  166 1   
   166  163  172 1   
   167  164  165 2   
   168  164  177 1   
   169  166  167 1   
   170  166  173 1   
   171  166  174 1   
   172  167  168 1   
   173  167  175 1   
   174  167  176 1   
   175  168  169 1   
   176  168  170 1   
   177  177  178 1   
   178  177  182 1   
   179  178  179 1   
   180  178  180 1   
   181  178  181 1   
   182  184  185 1   
   183  184  186 1   
   184  187  188 1   
   185  187  189 1   
@<TRIPOS>SUBSTRUCTURE
     1 MOL         1 TEMP              0 ****  ****    0 ROOT
