@<TRIPOS>MOLECULE
MOL
  179   176     1     0     0
SMALL
resp


@<TRIPOS>ATOM
      1 C1         -1.4890   -3.5300    5.9410 c3        1 MOL     -0.289091
      2 C2         -1.1700   -3.1970    4.4770 c         1 MOL      0.769302
      3 O1         -2.0560   -3.2690    3.6030 o         1 MOL     -0.617061
      4 H1         -0.9870   -4.4560    6.2200 hc        1 MOL      0.069833
      5 H2         -1.1410   -2.7200    6.5830 hc        1 MOL      0.069833
      6 H3         -2.5660   -3.6510    6.0600 hc        1 MOL      0.069833
      7 N1          0.0620   -2.8240    4.2550 n         1 MOL     -0.577231
      8 C3          0.6910   -2.7520    2.9070 c3        1 MOL     -0.116759
      9 C4          0.8360   -4.2010    2.4130 c         1 MOL      0.676733
     10 O2          1.3710   -5.0110    3.1760 o         1 MOL     -0.556325
     11 C5          2.0690   -2.0000    3.1130 c3        1 MOL     -0.174868
     12 C6          2.7040   -1.7240    1.7370 c         1 MOL      0.754533
     13 O3          3.5250   -0.8050    1.6420 o         1 MOL     -0.710753
     14 O4          2.4390   -2.3910    0.6800 o         1 MOL     -0.710753
     15 H4          0.7030   -2.9630    5.0240 hn        1 MOL      0.327916
     16 H5         -0.0290   -2.2600    2.2560 h1        1 MOL      0.096514
     17 H6          2.6690   -2.7300    3.6560 hc        1 MOL      0.084857
     18 H7          1.9330   -1.1510    3.7790 hc        1 MOL      0.084857
     19 N2          0.4640   -4.4460    1.1160 n         1 MOL     -0.394225
     20 C7          0.5510   -5.6990    0.3060 c3        1 MOL     -0.038341
     21 C8          1.8260   -6.0340   -0.3980 c         1 MOL      0.531294
     22 O5          1.9060   -7.0840   -1.0550 o         1 MOL     -0.552631
     23 C9         -0.7150   -5.8820   -0.5650 c3        1 MOL     -0.181015
     24 C10        -0.8970   -4.7450   -1.6470 c3        1 MOL      0.369349
     25 C11        -2.1050   -4.9520   -2.4680 c3        1 MOL     -0.348976
     26 C12        -2.1660   -3.6960   -3.4410 c3        1 MOL      0.253150
     27 N3         -3.4800   -3.5890   -4.0820 n4        1 MOL     -0.416937
     28 H8          0.2280   -3.5920    0.6310 hn        1 MOL      0.187005
     29 H9          0.5600   -6.4790    1.0670 h1        1 MOL      0.102105
     30 H10        -1.5070   -5.9510    0.1790 hc        1 MOL      0.060395
     31 H11        -0.6600   -6.8150   -1.1220 hc        1 MOL      0.060395
     32 H12        -0.0360   -4.8630   -2.3160 hc        1 MOL      0.016073
     33 H13        -0.9960   -3.7810   -1.1470 hc        1 MOL      0.016073
     34 H14        -3.0020   -5.0160   -1.8490 hc        1 MOL      0.081831
     35 H15        -1.8880   -5.8240   -3.0810 hc        1 MOL      0.081831
     36 H16        -1.3870   -3.7310   -4.2020 hx        1 MOL      0.012962
     37 H17        -1.8750   -2.7840   -2.9200 hx        1 MOL      0.012962
     38 H18        -4.1540   -3.4790   -3.3450 hn        1 MOL      0.329913
     39 H19        -3.5420   -2.7990   -4.7160 hn        1 MOL      0.329913
     40 H20        -3.7800   -4.4480   -4.5280 hn        1 MOL      0.329913
     41 N4          2.7140   -5.0300   -0.5200 n         1 MOL     -0.369264
     42 C13         3.7850   -5.0050   -1.5170 c3        1 MOL      0.009078
     43 C14         5.0280   -4.3940   -0.8690 c         1 MOL      0.493249
     44 O6          6.0720   -4.7190   -1.3500 o         1 MOL     -0.536506
     45 C15         3.3150   -4.2580   -2.8250 c3        1 MOL     -0.107282
     46 C16         2.7590   -2.9430   -2.4660 c         1 MOL      0.733779
     47 O7          3.5250   -2.0080   -2.1560 o         1 MOL     -0.760270
     48 O8          1.5140   -2.7440   -2.3790 o         1 MOL     -0.760270
     49 H21         2.5350   -4.2180    0.0530 hn        1 MOL      0.155952
     50 H22         3.9830   -6.0310   -1.8210 h1        1 MOL      0.105074
     51 H23         2.5200   -4.7990   -3.3360 hc        1 MOL      0.044576
     52 H24         4.1390   -4.1640   -3.5320 hc        1 MOL      0.044576
     53 N5          4.8920   -3.5250    0.1090 n         1 MOL     -0.252872
     54 C17         5.9700   -2.8750    0.8200 c3        1 MOL     -0.179270
     55 C18         6.6170   -1.6510    0.1420 c         1 MOL      0.496944
     56 O9          7.8360   -1.3720    0.2970 o         1 MOL     -0.548474
     57 H25         3.9440   -3.2260    0.2950 hn        1 MOL      0.253228
     58 H26         6.7020   -3.6620    0.9630 h1        1 MOL      0.099609
     59 H27         5.5730   -2.5650    1.7910 h1        1 MOL      0.099609
     60 N6          5.8050   -0.9860   -0.6980 n         1 MOL     -0.054190
     61 C19         6.2670    0.2900   -1.2030 c3        1 MOL     -0.190491
     62 C20         6.3280    1.4840   -0.2400 c         1 MOL      0.368802
     63 O10         6.8460    2.5200   -0.6700 o         1 MOL     -0.483841
     64 C21         5.3630    0.4770   -2.4450 c3        1 MOL     -0.316296
     65 C22         4.1590    1.3550   -2.2050 c         1 MOL      0.684838
     66 N7          3.6330    2.2010   -3.1180 n         1 MOL     -0.746765
     67 O11         3.5600    1.2130   -1.1820 o         1 MOL     -0.494332
     68 H28         4.8550   -1.2720   -0.8840 hn        1 MOL      0.080838
     69 H29         7.2520    0.1160   -1.6600 h1        1 MOL      0.168467
     70 H30         5.0580   -0.4240   -2.9670 hc        1 MOL      0.130627
     71 H31         6.0210    1.0290   -3.1260 hc        1 MOL      0.130627
     72 H32         4.0550    2.2960   -4.0250 hn        1 MOL      0.334937
     73 H33         2.8730    2.7900   -2.7980 hn        1 MOL      0.334937
     74 N8          5.7930    1.4610    0.9700 n         1 MOL     -0.163160
     75 C23         5.8490    2.5910    1.9050 c3        1 MOL     -0.211370
     76 C24         4.5440    3.3910    2.0050 c         1 MOL      0.675107
     77 O12         4.4700    4.3460    2.7460 o         1 MOL     -0.590162
     78 H34         5.2870    0.6180    1.1840 hn        1 MOL      0.228865
     79 H35         6.6430    3.3170    1.7070 h1        1 MOL      0.122543
     80 H36         6.1090    2.2210    2.8840 h1        1 MOL      0.122543
     81 N9          3.5460    2.9470    1.3010 n         1 MOL     -0.607225
     82 C25         2.2580    3.5650    1.2200 c3        1 MOL      0.582795
     83 C26         1.0870    2.6020    1.3240 c         1 MOL      0.383619
     84 O13         1.2780    1.4240    0.9900 o         1 MOL     -0.593908
     85 C27         2.1430    4.4570    0.0170 c3        1 MOL      0.079352
     86 C28         3.2680    5.4570   -0.2620 ca        1 MOL     -0.086536
     87 C29         4.2440    5.1110   -1.2180 ca        1 MOL     -0.159715
     88 C30         3.3490    6.6210    0.4970 ca        1 MOL     -0.159715
     89 C31         5.4080    5.9400   -1.3590 ca        1 MOL     -0.239497
     90 C32         4.4760    7.4380    0.2440 ca        1 MOL     -0.239497
     91 C33         5.4800    7.0930   -0.6800 ca        1 MOL      0.382135
     92 O14         6.5170    7.9480   -0.8170 oh        1 MOL     -0.519311
     93 H37         3.6280    2.1730    0.6570 hn        1 MOL      0.269572
     94 H38         2.1000    4.1550    2.1220 h1        1 MOL     -0.065439
     95 H39         1.1710    4.9400    0.0960 hc        1 MOL     -0.039414
     96 H40         2.0300    3.7450   -0.8000 hc        1 MOL     -0.039414
     97 H41         4.1240    4.1750   -1.7390 ha        1 MOL      0.136205
     98 H42         2.5430    6.8110    1.1860 ha        1 MOL      0.136205
     99 H43         6.2660    5.7660   -1.9810 ha        1 MOL      0.138697
    100 H44         4.6150    8.3550    0.8000 ha        1 MOL      0.138697
    101 H45         6.5010    8.7330   -0.2480 ho        1 MOL      0.375452
    102 N10        -0.1110    3.0890    1.8230 n         1 MOL     -0.590946
    103 C34        -1.4060    2.4300    1.6610 c3        1 MOL      0.107133
    104 C35        -2.1670    3.2220    0.6860 c         1 MOL      0.610912
    105 O15        -2.0700    4.4560    0.6930 o         1 MOL     -0.558124
    106 C36        -2.0020    2.1710    3.0840 c3        1 MOL      0.019437
    107 C37        -1.1330    1.1110    3.9380 c3        1 MOL      0.052620
    108 C38        -3.4950    1.8300    2.8950 c3        1 MOL     -0.118521
    109 C39        -1.7770    1.0300    5.3160 c3        1 MOL     -0.364865
    110 H46        -0.0170    4.0680    2.0520 hn        1 MOL      0.308772
    111 H47        -1.1760    1.4770    1.1950 h1        1 MOL      0.071915
    112 H48        -2.0510    3.1520    3.5730 hc        1 MOL      0.041664
    113 H49        -0.1150    1.4870    4.0550 hc        1 MOL      0.055277
    114 H50        -1.1280    0.0930    3.5370 hc        1 MOL      0.055277
    115 H51        -3.7930    1.4960    3.8850 hc        1 MOL      0.021022
    116 H52        -4.0390    2.6490    2.4440 hc        1 MOL      0.021022
    117 H53        -3.5620    0.9570    2.2420 hc        1 MOL      0.021022
    118 H54        -1.1030    0.4410    5.9390 hc        1 MOL      0.092975
    119 H55        -1.9690    2.0340    5.6970 hc        1 MOL      0.092975
    120 H56        -2.7210    0.4780    5.2990 hc        1 MOL      0.092975
    121 N11        -2.9330    2.5210   -0.2120 n         1 MOL     -0.324174
    122 C40        -3.7910    3.2040   -1.2210 c3        1 MOL      0.061606
    123 C41        -5.2490    3.1490   -0.6580 c         1 MOL      0.486795
    124 O16        -5.4850    2.4350    0.3310 o         1 MOL     -0.408195
    125 C42        -3.6650    2.3720   -2.5560 c3        1 MOL     -0.197553
    126 O17        -4.1910    1.0980   -2.3650 oh        1 MOL     -0.332072
    127 H57        -3.0160    1.5280   -0.0550 hn        1 MOL      0.094150
    128 H58        -3.4680    4.2380   -1.3210 h1        1 MOL      0.076067
    129 H59        -2.6190    2.2110   -2.8220 h1        1 MOL      0.094987
    130 H60        -4.2440    2.8920   -3.3160 h1        1 MOL      0.094987
    131 H61        -3.7700    0.5670   -3.0330 ho        1 MOL      0.350336
    132 N12        -6.2620    3.6830   -1.3500 n         1 MOL     -0.494229
    133 C43        -7.6160    3.5430   -0.9100 c3        1 MOL      0.097037
    134 C44        -8.1370    2.1620   -1.0050 c         1 MOL      0.378508
    135 O18        -9.0740    1.8130   -0.3710 o         1 MOL     -0.487314
    136 C45        -8.5540    4.5360   -1.6420 c3        1 MOL     -0.245185
    137 H62        -6.1010    4.1220   -2.2480 hn        1 MOL      0.301774
    138 H63        -7.6200    3.8450    0.1410 h1        1 MOL      0.110541
    139 H64        -8.5630    4.2620   -2.7020 hc        1 MOL      0.086392
    140 H65        -9.5660    4.4330   -1.2540 hc        1 MOL      0.086392
    141 H66        -8.3710    5.6050   -1.5580 hc        1 MOL      0.086392
    142 N13        -7.4680    1.2800   -1.7790 n         1 MOL     -0.202832
    143 C46        -7.8410   -0.0790   -2.0510 c3        1 MOL      0.162635
    144 C47        -7.2540   -1.0080   -0.9710 c         1 MOL      0.342271
    145 O19        -7.9610   -1.7270   -0.3040 o         1 MOL     -0.484075
    146 C48        -7.4310   -0.4000   -3.4200 c3        1 MOL     -0.175424
    147 H67        -6.7130    1.7200   -2.2810 hn        1 MOL      0.186518
    148 H68        -8.9130   -0.1790   -1.9230 h1        1 MOL      0.073930
    149 H69        -7.7490   -1.3790   -3.7900 hc        1 MOL      0.026568
    150 H70        -7.7960    0.4480   -4.0050 hc        1 MOL      0.026568
    151 H71        -6.3550   -0.3210   -3.5480 hc        1 MOL      0.026568
    152 N14        -5.9500   -0.8300   -0.6630 n         1 MOL     -0.116493
    153 C49        -5.2040   -1.4750    0.3810 c3        1 MOL     -0.103360
    154 C50        -5.7870   -1.0780    1.7140 c         1 MOL      0.454556
    155 O20        -5.8210   -1.8780    2.6340 o         1 MOL     -0.541201
    156 C51        -3.7300   -1.1220    0.3580 c3        1 MOL      0.076167
    157 C52        -2.9180   -1.5170   -0.8830 c3        1 MOL     -0.057161
    158 C53        -1.5730   -0.8170   -0.9610 c         1 MOL      0.738441
    159 O21        -0.9720   -0.5560   -2.0340 o         1 MOL     -0.738201
    160 O22        -0.8780   -0.8170    0.0450 o         1 MOL     -0.738201
    161 H72        -5.4700   -0.2330   -1.3190 hn        1 MOL      0.006686
    162 H73        -5.2680   -2.5580    0.2420 h1        1 MOL      0.096078
    163 H74        -3.2080   -1.6050    1.1790 hc        1 MOL      0.077148
    164 H75        -3.7040   -0.0340    0.4810 hc        1 MOL      0.077148
    165 H76        -3.4540   -1.3160   -1.8120 hc        1 MOL     -0.059595
    166 H77        -2.9040   -2.6060   -0.9520 hc        1 MOL     -0.059595
    167 N15        -6.4130    0.0840    1.9090 n         1 MOL     -0.063567
    168 C54        -7.0670    0.6160    3.1500 c3        1 MOL     -0.294830
    169 H78        -8.0970    0.8940    2.9260 h1        1 MOL      0.119863
    170 H79        -7.0580   -0.1510    3.9250 h1        1 MOL      0.119863
    171 H80        -6.5220    1.4930    3.5000 h1        1 MOL      0.119863
    172 H81        -6.3500    0.6790    1.0970 hn        1 MOL      0.124986
    173 Ca1         1.6310   -0.4530   -0.9290 Ca        1 MOL      1.755511
    174 O23         1.8510    0.2200   -3.9940 oh        1 MOL     -0.791778
    175 H82         1.2300    0.7690   -4.4740 ho        1 MOL      0.383870
    176 H83         2.6610    0.2770   -4.5020 ho        1 MOL      0.383870
    177 O24         0.5880    1.9070   -1.7850 oh        1 MOL     -0.791778
    178 H84         0.3720    2.8140   -1.9840 ho        1 MOL      0.383870
    179 H85         0.0450    1.3970   -2.3930 ho        1 MOL      0.383870
@<TRIPOS>BOND
     1    1    2 1   
     2    1    4 1   
     3    1    5 1   
     4    1    6 1   
     5    2    3 2   
     6    2    7 1   
     7    7    8 1   
     8    7   15 1   
     9    8    9 1   
    10    8   11 1   
    11    8   16 1   
    12    9   10 2   
    13    9   19 1   
    14   11   12 1   
    15   11   17 1   
    16   11   18 1   
    17   12   13 1   
    18   12   14 1   
    19   19   20 1   
    20   19   28 1   
    21   20   21 1   
    22   20   23 1   
    23   20   29 1   
    24   21   22 2   
    25   21   41 1   
    26   23   24 1   
    27   23   30 1   
    28   23   31 1   
    29   24   25 1   
    30   24   32 1   
    31   24   33 1   
    32   25   26 1   
    33   25   34 1   
    34   25   35 1   
    35   26   27 1   
    36   26   36 1   
    37   26   37 1   
    38   27   38 1   
    39   27   39 1   
    40   27   40 1   
    41   41   42 1   
    42   41   49 1   
    43   42   43 1   
    44   42   45 1   
    45   42   50 1   
    46   43   44 2   
    47   43   53 1   
    48   45   46 1   
    49   45   51 1   
    50   45   52 1   
    51   46   47 1   
    52   46   48 1   
    53   53   54 1   
    54   53   57 1   
    55   54   55 1   
    56   54   58 1   
    57   54   59 1   
    58   55   56 2   
    59   55   60 1   
    60   60   61 1   
    61   60   68 1   
    62   61   62 1   
    63   61   64 1   
    64   61   69 1   
    65   62   63 2   
    66   62   74 1   
    67   64   65 1   
    68   64   70 1   
    69   64   71 1   
    70   65   66 1   
    71   65   67 2   
    72   66   72 1   
    73   66   73 1   
    74   74   75 1   
    75   74   78 1   
    76   75   76 1   
    77   75   79 1   
    78   75   80 1   
    79   76   77 2   
    80   76   81 1   
    81   81   82 1   
    82   81   93 1   
    83   82   83 1   
    84   82   85 1   
    85   82   94 1   
    86   83   84 2   
    87   83  102 1   
    88   85   86 1   
    89   85   95 1   
    90   85   96 1   
    91   86   87 ar  
    92   86   88 ar  
    93   87   89 ar  
    94   87   97 1   
    95   88   90 ar  
    96   88   98 1   
    97   89   91 ar  
    98   89   99 1   
    99   90   91 ar  
   100   90  100 1   
   101   91   92 1   
   102   92  101 1   
   103  102  103 1   
   104  102  110 1   
   105  103  104 1   
   106  103  106 1   
   107  103  111 1   
   108  104  105 2   
   109  104  121 1   
   110  106  107 1   
   111  106  108 1   
   112  106  112 1   
   113  107  109 1   
   114  107  113 1   
   115  107  114 1   
   116  108  115 1   
   117  108  116 1   
   118  108  117 1   
   119  109  118 1   
   120  109  119 1   
   121  109  120 1   
   122  121  122 1   
   123  121  127 1   
   124  122  123 1   
   125  122  125 1   
   126  122  128 1   
   127  123  124 2   
   128  123  132 1   
   129  125  126 1   
   130  125  129 1   
   131  125  130 1   
   132  126  131 1   
   133  132  133 1   
   134  132  137 1   
   135  133  134 1   
   136  133  136 1   
   137  133  138 1   
   138  134  135 2   
   139  134  142 1   
   140  136  139 1   
   141  136  140 1   
   142  136  141 1   
   143  142  143 1   
   144  142  147 1   
   145  143  144 1   
   146  143  146 1   
   147  143  148 1   
   148  144  145 2   
   149  144  152 1   
   150  146  149 1   
   151  146  150 1   
   152  146  151 1   
   153  152  153 1   
   154  152  161 1   
   155  153  154 1   
   156  153  156 1   
   157  153  162 1   
   158  154  155 2   
   159  154  167 1   
   160  156  157 1   
   161  156  163 1   
   162  156  164 1   
   163  157  158 1   
   164  157  165 1   
   165  157  166 1   
   166  158  159 1   
   167  158  160 1   
   168  167  168 1   
   169  167  172 1   
   170  168  169 1   
   171  168  170 1   
   172  168  171 1   
   173  174  175 1   
   174  174  176 1   
   175  177  178 1   
   176  177  179 1   
@<TRIPOS>SUBSTRUCTURE
     1 MOL         1 TEMP              0 ****  ****    0 ROOT
