@<TRIPOS>MOLECULE
MOL
  179   176     1     0     0
SMALL
resp


@<TRIPOS>ATOM
      1 C1          2.1160    3.5780    4.4570 c3        1 MOL     -0.335266
      2 C2          1.3980    3.1770    3.2000 c         1 MOL      0.599931
      3 O1          2.0040    3.0570    2.0890 o         1 MOL     -0.566327
      4 H1          2.3930    4.6310    4.3950 hc        1 MOL      0.093334
      5 H2          1.4610    3.4250    5.3150 hc        1 MOL      0.093334
      6 H3          3.0140    2.9720    4.5720 hc        1 MOL      0.093334
      7 N1          0.0390    2.9700    3.3400 n         1 MOL     -0.626012
      8 C3         -0.8220    2.7050    2.2400 c3        1 MOL      0.005963
      9 C4         -1.3780    4.0880    1.7340 c         1 MOL      0.659210
     10 O2         -2.5270    4.4040    2.1110 o         1 MOL     -0.517846
     11 C5         -1.9380    1.7640    2.5620 c3        1 MOL      0.066556
     12 C6         -2.8850    1.4870    1.4350 c         1 MOL      0.482546
     13 O3         -4.0100    1.0130    1.7060 o         1 MOL     -0.628181
     14 O4         -2.4400    1.5280    0.2810 o         1 MOL     -0.628181
     15 H4         -0.4270    3.0070    4.2420 hn        1 MOL      0.363470
     16 H5         -0.2050    2.3040    1.4270 h1        1 MOL      0.021741
     17 H6         -2.4250    2.1930    3.4400 hc        1 MOL     -0.006805
     18 H7         -1.5780    0.8050    2.9270 hc        1 MOL     -0.006805
     19 N2         -0.6080    4.8300    0.9070 n         1 MOL     -0.644138
     20 C7         -1.0160    6.1480    0.3990 c3        1 MOL      0.074678
     21 C8         -2.0870    6.1130   -0.6840 c         1 MOL      0.415166
     22 O5         -2.8350    7.0590   -0.8820 o         1 MOL     -0.532197
     23 C9          0.1980    6.9730   -0.1100 c3        1 MOL     -0.240288
     24 C10         1.3070    7.1160    0.9540 c3        1 MOL      0.260892
     25 C11         2.3720    8.1450    0.4310 c3        1 MOL     -0.105215
     26 C12         3.2930    8.5880    1.5850 c3        1 MOL     -0.072954
     27 N3          4.3080    7.5780    2.0040 n4        1 MOL     -0.306387
     28 H8          0.3260    4.5380    0.6420 hn        1 MOL      0.438666
     29 H9         -1.4280    6.7730    1.1840 h1        1 MOL      0.093054
     30 H10        -0.2150    7.9750   -0.2360 hc        1 MOL      0.082518
     31 H11         0.6290    6.5030   -0.9980 hc        1 MOL      0.082518
     32 H12         1.7140    6.1130    1.0490 hc        1 MOL     -0.043982
     33 H13         0.9050    7.4610    1.9040 hc        1 MOL     -0.043982
     34 H14         1.9080    9.0820    0.1070 hc        1 MOL      0.065111
     35 H15         2.8180    7.7260   -0.4680 hc        1 MOL      0.065111
     36 H16         2.7320    8.9480    2.4560 hx        1 MOL      0.111931
     37 H17         3.8380    9.4020    1.1230 hx        1 MOL      0.111931
     38 H18         4.6080    7.1430    1.1430 hn        1 MOL      0.323330
     39 H19         5.1550    7.9870    2.3750 hn        1 MOL      0.323330
     40 H20         3.8990    6.8330    2.5380 hn        1 MOL      0.323330
     41 N4         -2.3310    4.9520   -1.3710 n         1 MOL     -0.267826
     42 C13        -3.3330    4.8520   -2.4300 c3        1 MOL      0.041424
     43 C14        -4.6720    4.2590   -1.8990 c         1 MOL      0.381686
     44 O6         -5.6910    4.1990   -2.5760 o         1 MOL     -0.524253
     45 C15        -2.8330    3.9600   -3.5610 c3        1 MOL     -0.145344
     46 C16        -2.2800    2.6600   -3.0300 c         1 MOL      0.730819
     47 O7         -3.0600    1.7280   -2.8580 o         1 MOL     -0.751862
     48 O8         -1.1550    2.5080   -2.5460 o         1 MOL     -0.751862
     49 H21        -1.8490    4.1290   -1.0460 hn        1 MOL      0.204693
     50 H22        -3.6340    5.8130   -2.8510 h1        1 MOL      0.104492
     51 H23        -2.0210    4.4790   -4.0790 hc        1 MOL      0.032100
     52 H24        -3.6450    3.8860   -4.2780 hc        1 MOL      0.032100
     53 N5         -4.6500    3.7150   -0.6600 n         1 MOL     -0.003442
     54 C17        -5.9080    3.3680    0.0110 c3        1 MOL     -0.361381
     55 C18        -6.5390    1.9800   -0.2120 c         1 MOL      0.665333
     56 O9         -7.6720    1.8820    0.2360 o         1 MOL     -0.581450
     57 H25        -3.8360    3.8200   -0.0700 hn        1 MOL      0.150327
     58 H26        -6.6470    4.1640   -0.0500 h1        1 MOL      0.137046
     59 H27        -5.5900    3.2770    1.0530 h1        1 MOL      0.137046
     60 N6         -5.9260    1.0360   -0.9480 n         1 MOL     -0.297049
     61 C19        -6.5000   -0.2740   -1.2450 c3        1 MOL      0.019221
     62 C20        -6.5960   -1.2600   -0.1120 c         1 MOL      0.292837
     63 O10        -7.2680   -2.2720   -0.2520 o         1 MOL     -0.455008
     64 C21        -5.8040   -0.8470   -2.5210 c3        1 MOL     -0.253633
     65 C22        -4.5860   -1.7360   -2.2410 c         1 MOL      0.679476
     66 N7         -4.4650   -2.8290   -2.8620 n         1 MOL     -0.661412
     67 O11        -3.6470   -1.4270   -1.5160 o         1 MOL     -0.771598
     68 H28        -5.0490    1.2900   -1.3750 hn        1 MOL      0.196498
     69 H29        -7.5780   -0.1470   -1.3540 h1        1 MOL      0.100087
     70 H30        -5.4750   -0.0470   -3.1730 hc        1 MOL      0.104641
     71 H31        -6.5290   -1.4150   -3.1050 hc        1 MOL      0.104641
     72 H32        -5.2230   -3.0890   -3.4760 hn        1 MOL      0.340373
     73 H33        -3.6350   -3.3680   -2.6890 hn        1 MOL      0.340373
     74 N8         -5.8770   -0.9710    1.0440 n         1 MOL     -0.049738
     75 C23        -5.7580   -1.7200    2.3040 c3        1 MOL     -0.195692
     76 C24        -4.5810   -2.6340    2.4340 c         1 MOL      0.639579
     77 O12        -4.5570   -3.5150    3.2580 o         1 MOL     -0.571987
     78 H34        -5.3300   -0.1230    1.0340 hn        1 MOL      0.122483
     79 H35        -6.6940   -2.2800    2.3890 h1        1 MOL      0.097204
     80 H36        -5.6820   -1.0640    3.1760 h1        1 MOL      0.097204
     81 N9         -3.6170   -2.5640    1.4820 n         1 MOL     -0.477220
     82 C25        -2.4960   -3.4770    1.3740 c3        1 MOL      0.266560
     83 C26        -1.2160   -2.6400    1.0650 c         1 MOL      0.337842
     84 O13        -1.3010   -1.6630    0.3150 o         1 MOL     -0.473719
     85 C27        -2.7760   -4.4220    0.2550 c3        1 MOL     -0.038896
     86 C28        -3.9880   -5.3010    0.5100 ca        1 MOL      0.117348
     87 C29        -5.2020   -5.1070   -0.2570 ca        1 MOL     -0.215134
     88 C30        -3.8960   -6.4750    1.2570 ca        1 MOL     -0.215134
     89 C31        -6.2830   -6.0400   -0.0840 ca        1 MOL     -0.250283
     90 C32        -4.9580   -7.4200    1.4390 ca        1 MOL     -0.250283
     91 C33        -6.1400   -7.1270    0.7830 ca        1 MOL      0.360628
     92 O14        -7.1750   -7.9620    1.0570 oh        1 MOL     -0.489475
     93 H37        -3.6090   -1.8820    0.7270 hn        1 MOL      0.359766
     94 H38        -2.3590   -4.1140    2.2480 h1        1 MOL      0.008329
     95 H39        -1.9060   -5.0670    0.1070 hc        1 MOL     -0.007811
     96 H40        -2.7980   -3.7840   -0.6320 hc        1 MOL     -0.007811
     97 H41        -5.3070   -4.4380   -1.0930 ha        1 MOL      0.137941
     98 H42        -2.9290   -6.6300    1.7200 ha        1 MOL      0.137941
     99 H43        -7.2550   -6.0150   -0.5500 ha        1 MOL      0.148784
    100 H44        -4.7750   -8.3140    2.0170 ha        1 MOL      0.148784
    101 H45        -6.8500   -8.6030    1.6890 ho        1 MOL      0.350174
    102 N10        -0.0240   -3.0590    1.5680 n         1 MOL     -0.364753
    103 C34         1.2960   -2.5210    1.2700 c3        1 MOL     -0.137422
    104 C35         2.2110   -3.6250    0.8210 c         1 MOL      0.689144
    105 O15         2.2280   -4.7180    1.3840 o         1 MOL     -0.561479
    106 C36         1.8880   -1.7190    2.4970 c3        1 MOL      0.043920
    107 C37         2.1120   -2.5700    3.7970 c3        1 MOL     -0.208812
    108 C38         1.0400   -0.5290    2.8640 c3        1 MOL     -0.470609
    109 C39         3.1010   -2.0030    4.7740 c3        1 MOL     -0.202624
    110 H46        -0.0290   -3.9230    2.0880 hn        1 MOL      0.246568
    111 H47         1.2370   -1.8980    0.3780 h1        1 MOL      0.073962
    112 H48         2.8560   -1.3470    2.1880 hc        1 MOL      0.017334
    113 H49         2.6490   -3.4760    3.5000 hc        1 MOL      0.116663
    114 H50         1.2310   -2.8100    4.3890 hc        1 MOL      0.116663
    115 H51         0.2430   -0.8520    3.5280 hc        1 MOL      0.172482
    116 H52         1.5970    0.1710    3.4900 hc        1 MOL      0.172482
    117 H53         0.6930   -0.0120    1.9750 hc        1 MOL      0.172482
    118 H54         3.7700   -1.3460    4.2110 hc        1 MOL      0.057047
    119 H55         2.6150   -1.2500    5.3930 hc        1 MOL      0.057047
    120 H56         3.5390   -2.8040    5.3650 hc        1 MOL      0.057047
    121 N11         3.1010   -3.2800   -0.1490 n         1 MOL     -0.509219
    122 C40         4.2700   -4.1860   -0.5270 c3        1 MOL      0.065622
    123 C41         5.5560   -3.5460    0.0660 c         1 MOL      0.557863
    124 O16         5.5490   -2.4710    0.6200 o         1 MOL     -0.440913
    125 C42         4.2590   -4.4650   -2.0000 c3        1 MOL     -0.211286
    126 O17         4.6850   -3.3250   -2.7600 oh        1 MOL     -0.507732
    127 H57         3.0380   -2.3640   -0.5830 hn        1 MOL      0.283307
    128 H58         4.1230   -5.1650   -0.0670 h1        1 MOL      0.067307
    129 H59         3.2980   -4.8620   -2.3460 h1        1 MOL      0.145346
    130 H60         5.0100   -5.2120   -2.2550 h1        1 MOL      0.145346
    131 H61         4.5290   -3.5170   -3.6890 ho        1 MOL      0.388742
    132 N12         6.6310   -4.2130   -0.2760 n         1 MOL     -0.513284
    133 C43         8.0440   -3.7670   -0.1870 c3        1 MOL      0.205172
    134 C44         8.3350   -2.4330   -0.7890 c         1 MOL      0.393092
    135 O18         9.1970   -1.6880   -0.2870 o         1 MOL     -0.520894
    136 C45         9.0670   -4.8470   -0.7670 c3        1 MOL     -0.293886
    137 H62         6.4780   -5.0590   -0.8100 hn        1 MOL      0.280614
    138 H63         8.2330   -3.7070    0.8840 h1        1 MOL      0.054929
    139 H64         9.0950   -4.8540   -1.8550 hc        1 MOL      0.097040
    140 H65        10.0750   -4.6150   -0.4270 hc        1 MOL      0.097040
    141 H66         8.8150   -5.8240   -0.3550 hc        1 MOL      0.097040
    142 N13         7.6720   -2.0890   -1.9210 n         1 MOL     -0.204299
    143 C46         7.9120   -0.7760   -2.5710 c3        1 MOL     -0.043194
    144 C47         7.2840    0.3670   -1.8020 c         1 MOL      0.485360
    145 O19         7.8490    1.3920   -1.6060 o         1 MOL     -0.503741
    146 C48         7.4150   -0.8160   -4.0650 c3        1 MOL     -0.192762
    147 H67         6.9600   -2.7000   -2.2780 hn        1 MOL      0.136471
    148 H68         8.9960   -0.6660   -2.6130 h1        1 MOL      0.109144
    149 H69         6.3290   -0.7810   -3.9870 hc        1 MOL      0.060196
    150 H70         7.7010    0.0460   -4.6690 hc        1 MOL      0.060196
    151 H71         7.9250   -1.6550   -4.5450 hc        1 MOL      0.060196
    152 N14         6.0040    0.1280   -1.4280 n         1 MOL     -0.235943
    153 C49         5.2370    1.0190   -0.6000 c3        1 MOL     -0.244144
    154 C50         5.9220    1.2290    0.7730 c         1 MOL      0.512478
    155 O20         5.9370    2.3590    1.3280 o         1 MOL     -0.594225
    156 C51         3.8190    0.4300   -0.3890 c3        1 MOL      0.019595
    157 C52         3.0750    0.5680   -1.6740 c3        1 MOL     -0.005966
    158 C53         1.5670    0.2060   -1.6020 c         1 MOL      0.733021
    159 O21         1.1230   -0.6820   -2.3560 o         1 MOL     -0.736918
    160 O22         0.7510    0.8440   -0.8620 o         1 MOL     -0.736918
    161 H72         5.6240   -0.8000   -1.5750 hn        1 MOL      0.321681
    162 H73         5.1290    2.0350   -0.9890 h1        1 MOL      0.130011
    163 H74         3.4280    1.1700    0.3050 hc        1 MOL      0.074079
    164 H75         3.8910   -0.5850   -0.0120 hc        1 MOL      0.074079
    165 H76         3.4700   -0.0680   -2.4620 hc        1 MOL     -0.042743
    166 H77         3.0970    1.6200   -1.9670 hc        1 MOL     -0.042743
    167 N15         6.4580    0.1730    1.3760 n         1 MOL     -0.113361
    168 C54         7.2500    0.3370    2.5650 c3        1 MOL     -0.278024
    169 H78         8.3020    0.1730    2.3260 h1        1 MOL      0.104178
    170 H79         7.1190    1.3470    2.9530 h1        1 MOL      0.104178
    171 H80         6.9320   -0.3850    3.3170 h1        1 MOL      0.104178
    172 H81         6.5440   -0.7290    0.9290 hn        1 MOL      0.171534
    173 Ca1        -1.5170    0.0120   -1.6920 Ca        1 MOL      1.790625
    174 O23        -1.1920   -0.0410   -4.3960 oh        1 MOL     -0.798290
    175 H82        -1.8890    0.1030   -5.0470 ho        1 MOL      0.397270
    176 H83        -0.5550   -0.5980   -4.8490 ho        1 MOL      0.397270
    177 O24        -0.9930   -2.5660   -2.5050 oh        1 MOL     -0.798290
    178 H84        -0.4370   -2.8730   -3.2250 ho        1 MOL      0.397270
    179 H85        -0.8820   -3.2350   -1.8320 ho        1 MOL      0.397270
@<TRIPOS>BOND
     1    1    2 1   
     2    1    4 1   
     3    1    5 1   
     4    1    6 1   
     5    2    3 2   
     6    2    7 1   
     7    7    8 1   
     8    7   15 1   
     9    8    9 1   
    10    8   11 1   
    11    8   16 1   
    12    9   10 2   
    13    9   19 1   
    14   11   12 1   
    15   11   17 1   
    16   11   18 1   
    17   12   13 1   
    18   12   14 1   
    19   19   20 1   
    20   19   28 1   
    21   20   21 1   
    22   20   23 1   
    23   20   29 1   
    24   21   22 2   
    25   21   41 1   
    26   23   24 1   
    27   23   30 1   
    28   23   31 1   
    29   24   25 1   
    30   24   32 1   
    31   24   33 1   
    32   25   26 1   
    33   25   34 1   
    34   25   35 1   
    35   26   27 1   
    36   26   36 1   
    37   26   37 1   
    38   27   38 1   
    39   27   39 1   
    40   27   40 1   
    41   41   42 1   
    42   41   49 1   
    43   42   43 1   
    44   42   45 1   
    45   42   50 1   
    46   43   44 2   
    47   43   53 1   
    48   45   46 1   
    49   45   51 1   
    50   45   52 1   
    51   46   47 1   
    52   46   48 1   
    53   53   54 1   
    54   53   57 1   
    55   54   55 1   
    56   54   58 1   
    57   54   59 1   
    58   55   56 2   
    59   55   60 1   
    60   60   61 1   
    61   60   68 1   
    62   61   62 1   
    63   61   64 1   
    64   61   69 1   
    65   62   63 2   
    66   62   74 1   
    67   64   65 1   
    68   64   70 1   
    69   64   71 1   
    70   65   66 1   
    71   65   67 2   
    72   66   72 1   
    73   66   73 1   
    74   74   75 1   
    75   74   78 1   
    76   75   76 1   
    77   75   79 1   
    78   75   80 1   
    79   76   77 2   
    80   76   81 1   
    81   81   82 1   
    82   81   93 1   
    83   82   83 1   
    84   82   85 1   
    85   82   94 1   
    86   83   84 2   
    87   83  102 1   
    88   85   86 1   
    89   85   95 1   
    90   85   96 1   
    91   86   87 ar  
    92   86   88 ar  
    93   87   89 ar  
    94   87   97 1   
    95   88   90 ar  
    96   88   98 1   
    97   89   91 ar  
    98   89   99 1   
    99   90   91 ar  
   100   90  100 1   
   101   91   92 1   
   102   92  101 1   
   103  102  103 1   
   104  102  110 1   
   105  103  104 1   
   106  103  106 1   
   107  103  111 1   
   108  104  105 2   
   109  104  121 1   
   110  106  107 1   
   111  106  108 1   
   112  106  112 1   
   113  107  109 1   
   114  107  113 1   
   115  107  114 1   
   116  108  115 1   
   117  108  116 1   
   118  108  117 1   
   119  109  118 1   
   120  109  119 1   
   121  109  120 1   
   122  121  122 1   
   123  121  127 1   
   124  122  123 1   
   125  122  125 1   
   126  122  128 1   
   127  123  124 2   
   128  123  132 1   
   129  125  126 1   
   130  125  129 1   
   131  125  130 1   
   132  126  131 1   
   133  132  133 1   
   134  132  137 1   
   135  133  134 1   
   136  133  136 1   
   137  133  138 1   
   138  134  135 2   
   139  134  142 1   
   140  136  139 1   
   141  136  140 1   
   142  136  141 1   
   143  142  143 1   
   144  142  147 1   
   145  143  144 1   
   146  143  146 1   
   147  143  148 1   
   148  144  145 2   
   149  144  152 1   
   150  146  149 1   
   151  146  150 1   
   152  146  151 1   
   153  152  153 1   
   154  152  161 1   
   155  153  154 1   
   156  153  156 1   
   157  153  162 1   
   158  154  155 2   
   159  154  167 1   
   160  156  157 1   
   161  156  163 1   
   162  156  164 1   
   163  157  158 1   
   164  157  165 1   
   165  157  166 1   
   166  158  159 1   
   167  158  160 1   
   168  167  168 1   
   169  167  172 1   
   170  168  169 1   
   171  168  170 1   
   172  168  171 1   
   173  174  175 1   
   174  174  176 1   
   175  177  178 1   
   176  177  179 1   
@<TRIPOS>SUBSTRUCTURE
     1 MOL         1 TEMP              0 ****  ****    0 ROOT
