@<TRIPOS>MOLECULE
MOL
  189   185     1     0     0
SMALL
resp


@<TRIPOS>ATOM
      1 C1          0.6070    1.9080    6.1480 c3        1 MOL     -0.430539
      2 C2          0.0310    2.2580    4.7540 c         1 MOL      0.711099
      3 O1          0.6980    2.8950    3.9250 o         1 MOL     -0.609724
      4 H1          1.4500    2.5640    6.3660 hc        1 MOL      0.111887
      5 H2         -0.1640    2.0440    6.9050 hc        1 MOL      0.111887
      6 H3          0.9440    0.8710    6.1520 hc        1 MOL      0.111887
      7 N1         -1.1600    1.6950    4.4810 n         1 MOL     -0.582680
      8 C3         -1.6700    1.6220    3.1260 c3        1 MOL      0.032266
      9 C4         -2.1020    3.0100    2.5470 c         1 MOL      0.499057
     10 O2         -2.9780    3.6640    3.1690 o         1 MOL     -0.527785
     11 C5         -2.7580    0.5250    3.1120 c3        1 MOL      0.068918
     12 C6         -3.4840    0.3850    1.7760 c         1 MOL      0.644868
     13 O3         -4.5180   -0.2520    1.7070 o         1 MOL     -0.712148
     14 O4         -2.9280    0.8780    0.7880 o         1 MOL     -0.712148
     15 H4         -1.7630    1.4170    5.2400 hn        1 MOL      0.321313
     16 H5         -0.9060    1.2920    2.4260 h1        1 MOL      0.063508
     17 H6         -3.5220    0.8740    3.8050 hc        1 MOL     -0.009341
     18 H7         -2.3880   -0.4400    3.4800 hc        1 MOL     -0.009341
     19 N2         -1.4750    3.4150    1.4390 n         1 MOL     -0.219634
     20 C7         -1.6350    4.7340    0.8820 c3        1 MOL      0.034464
     21 C8         -2.9930    4.9530    0.1810 c         1 MOL      0.362048
     22 O5         -3.7250    5.8900    0.5060 o         1 MOL     -0.546972
     23 C9         -0.4040    5.0240   -0.0360 c3        1 MOL      0.008651
     24 C10        -0.4450    6.2580   -0.9940 c3        1 MOL     -0.171461
     25 C11        -0.4690    7.5760   -0.2920 c3        1 MOL      0.000161
     26 C12         0.7640    7.9980    0.4370 c3        1 MOL      0.056602
     27 N3          0.6390    9.2230    1.2330 n4        1 MOL     -0.256058
     28 H8         -0.7360    2.8570    1.0440 hn        1 MOL      0.158519
     29 H9         -1.6470    5.4300    1.7190 h1        1 MOL      0.035471
     30 H10        -0.2480    4.1620   -0.6860 hc        1 MOL      0.042267
     31 H11         0.4380    5.1420    0.6410 hc        1 MOL      0.042267
     32 H12        -1.3480    6.2290   -1.6040 hc        1 MOL      0.059718
     33 H13         0.3460    6.1680   -1.7370 hc        1 MOL      0.059718
     34 H14        -1.2580    7.5330    0.4680 hc        1 MOL      0.036540
     35 H15        -0.7590    8.4100   -0.9230 hc        1 MOL      0.036540
     36 H16         1.6220    8.0830   -0.2370 hx        1 MOL      0.057613
     37 H17         1.0430    7.1910    1.1120 hx        1 MOL      0.057613
     38 H18        -0.2660    9.4110    1.6330 hn        1 MOL      0.298146
     39 H19         1.3430    9.2920    1.9460 hn        1 MOL      0.298146
     40 H20         0.8650   10.0410    0.6800 hn        1 MOL      0.298146
     41 N4         -3.2800    4.0700   -0.7910 n         1 MOL     -0.057680
     42 C13        -4.4570    4.2570   -1.6890 c3        1 MOL     -0.205766
     43 C14        -5.7380    3.5230   -1.2190 c         1 MOL      0.526714
     44 O6         -6.8160    3.8320   -1.7570 o         1 MOL     -0.559358
     45 C15        -4.2460    3.6430   -3.1040 c3        1 MOL     -0.148698
     46 C16        -3.8020    2.1550   -3.1670 c         1 MOL      0.722858
     47 O7         -3.5920    1.5300   -2.1170 o         1 MOL     -0.695916
     48 O8         -3.7570    1.6800   -4.3270 o         1 MOL     -0.695916
     49 H21        -2.6370    3.3090   -0.9320 hn        1 MOL      0.141292
     50 H22        -4.6390    5.3330   -1.7810 h1        1 MOL      0.118711
     51 H23        -3.5480    4.3020   -3.6140 hc        1 MOL      0.053591
     52 H24        -5.1760    3.6750   -3.6680 hc        1 MOL      0.053591
     53 N5         -5.5840    2.6860   -0.1960 n         1 MOL     -0.145368
     54 C17        -6.7030    2.0140    0.4990 c3        1 MOL     -0.349734
     55 C18        -7.3230    0.8750   -0.3670 c         1 MOL      0.615226
     56 O9         -8.4260    0.4380    0.0150 o         1 MOL     -0.591819
     57 H25        -4.6680    2.5110    0.1830 hn        1 MOL      0.217085
     58 H26        -7.5090    2.7080    0.7420 h1        1 MOL      0.146948
     59 H27        -6.2340    1.5530    1.3620 h1        1 MOL      0.146948
     60 N6         -6.6270    0.3100   -1.3820 n         1 MOL     -0.252128
     61 C19        -7.0310   -0.8790   -2.1190 c3        1 MOL     -0.110791
     62 C20        -7.1780   -2.2200   -1.2530 c         1 MOL      0.464031
     63 O10        -7.8150   -3.1480   -1.6360 o         1 MOL     -0.555682
     64 C21        -6.1830   -1.0460   -3.4120 c3        1 MOL     -0.275565
     65 C22        -4.6470   -1.4470   -3.1410 c         1 MOL      0.742435
     66 O11        -3.9820   -1.6200   -4.1670 o         1 MOL     -0.697861
     67 O12        -4.2390   -1.5630   -1.9250 o         1 MOL     -0.697861
     68 H28        -5.7780    0.8040   -1.5870 hn        1 MOL      0.145864
     69 H29        -8.0710   -0.6920   -2.3840 h1        1 MOL      0.089907
     70 H30        -6.1870   -0.1410   -4.0200 hc        1 MOL      0.108926
     71 H31        -6.5590   -1.8100   -4.0970 hc        1 MOL      0.108926
     72 N7         -6.5600   -2.2160   -0.1130 n         1 MOL     -0.020869
     73 C23        -6.7660   -3.2010    0.9640 c3        1 MOL     -0.271819
     74 C24        -5.5420   -4.1730    1.1560 c         1 MOL      0.540719
     75 O13        -5.6110   -5.1400    1.9400 o         1 MOL     -0.586884
     76 H32        -6.0180   -1.4000    0.1410 hn        1 MOL      0.196219
     77 H33        -7.5970   -3.8810    0.7830 h1        1 MOL      0.122640
     78 H34        -6.8390   -2.7370    1.9530 h1        1 MOL      0.122640
     79 N8         -4.4280   -3.8900    0.4770 n         1 MOL     -0.062162
     80 C25        -3.1270   -4.6660    0.6530 c3        1 MOL     -0.331260
     81 C26        -2.0060   -3.6760    0.8390 c         1 MOL      0.878595
     82 O14        -2.0740   -2.5320    0.4140 o         1 MOL     -0.568260
     83 C27        -2.8830   -5.6410   -0.4720 c3        1 MOL      0.339262
     84 C28        -3.7940   -6.9040   -0.3560 c3        1 MOL     -0.373241
     85 O15        -2.9950   -5.0510   -1.7550 oh        1 MOL     -0.627576
     86 H35        -4.3540   -3.0810   -0.1290 hn        1 MOL     -0.028172
     87 H36        -3.1070   -5.2540    1.5680 h1        1 MOL      0.125711
     88 H37        -1.8480   -5.9150   -0.3270 h1        1 MOL      0.048190
     89 H38        -3.9230   -4.8790   -1.9410 ho        1 MOL      0.418772
     90 H39        -3.4870   -7.3670    0.5850 hc        1 MOL      0.099715
     91 H40        -4.8340   -6.6890   -0.1440 hc        1 MOL      0.099715
     92 H41        -3.7260   -7.6770   -1.1140 hc        1 MOL      0.099715
     93 N9         -0.9950   -4.1460    1.5460 n         1 MOL     -0.759130
     94 C29         0.2610   -3.3380    1.7340 c3        1 MOL      0.095581
     95 C30         1.3900   -3.6800    0.7510 c         1 MOL      0.647091
     96 O16         1.6360   -4.8630    0.5870 o         1 MOL     -0.599060
     97 C31         0.7830   -3.3240    3.1870 c3        1 MOL      0.224484
     98 C32        -0.3280   -3.0190    4.2730 c3        1 MOL      0.199625
     99 C33         1.8740   -2.2500    3.2570 c3        1 MOL     -0.496136
    100 C34         0.1890   -3.2990    5.6820 c3        1 MOL     -0.174620
    101 H42        -1.0010   -5.1360    1.7520 hn        1 MOL      0.347247
    102 H43         0.0240   -2.3130    1.4730 h1        1 MOL      0.027029
    103 H44         1.2760   -4.2880    3.3310 hc        1 MOL     -0.050039
    104 H45        -1.2140   -3.6320    4.0990 hc        1 MOL     -0.029457
    105 H46        -0.5980   -1.9770    4.1420 hc        1 MOL     -0.029457
    106 H47         1.4200   -1.2560    3.2230 hc        1 MOL      0.100470
    107 H48         2.4440   -2.2390    4.1860 hc        1 MOL      0.100470
    108 H49         2.6440   -2.4160    2.5090 hc        1 MOL      0.100470
    109 H50         1.1190   -2.7710    5.8840 hc        1 MOL      0.028335
    110 H51        -0.5850   -3.0540    6.4100 hc        1 MOL      0.028335
    111 H52         0.2890   -4.3870    5.6830 hc        1 MOL      0.028335
    112 N10         1.9490   -2.7360    0.0010 n         1 MOL     -0.198675
    113 C35         3.2000   -3.0560   -0.8060 c3        1 MOL      0.068738
    114 C36         4.5550   -3.0270   -0.1300 c         1 MOL      0.357797
    115 O17         4.7500   -2.4700    0.9700 o         1 MOL     -0.355806
    116 C37         3.3440   -2.2090   -2.1390 c3        1 MOL      0.085432
    117 C38         2.0310   -2.1990   -2.7990 c3        1 MOL     -0.397568
    118 O18         3.5280   -0.8980   -1.7110 oh        1 MOL     -0.350092
    119 H53         1.5740   -1.8010   -0.1020 hn        1 MOL      0.054071
    120 H54         3.0850   -4.1120   -1.0660 h1        1 MOL      0.053222
    121 H55         4.2190   -2.5540   -2.6790 h1        1 MOL      0.048275
    122 H56         3.7230   -0.3220   -2.4530 ho        1 MOL      0.348021
    123 H57         2.1880   -1.8190   -3.8110 hc        1 MOL      0.125208
    124 H58         1.5200   -3.1600   -2.8100 hc        1 MOL      0.125208
    125 H59         1.3990   -1.4840   -2.2640 hc        1 MOL      0.125208
    126 N11         5.5500   -3.5020   -0.8680 n         1 MOL     -0.337334
    127 C39         7.0140   -3.2990   -0.4980 c3        1 MOL     -0.016688
    128 C40         7.4540   -1.8520   -0.2130 c         1 MOL      0.309415
    129 O19         8.0760   -1.6530    0.8200 o         1 MOL     -0.495476
    130 C41         7.8890   -3.8010   -1.6290 c3        1 MOL      0.180572
    131 C42         7.8460   -5.3270   -1.6570 c3        1 MOL     -0.455939
    132 O20         7.4840   -3.2940   -2.9100 oh        1 MOL     -0.642812
    133 H60         5.3330   -4.0170   -1.7140 hn        1 MOL      0.279689
    134 H61         7.1880   -3.8520    0.4280 h1        1 MOL      0.143665
    135 H62         8.8940   -3.4230   -1.4520 h1        1 MOL      0.077017
    136 H63         8.0460   -3.7030   -3.5690 ho        1 MOL      0.434188
    137 H64         7.0060   -5.6720   -2.2580 hc        1 MOL      0.135986
    138 H65         8.7160   -5.6490   -2.2190 hc        1 MOL      0.135986
    139 H66         7.7790   -5.8680   -0.7060 hc        1 MOL      0.135986
    140 N12         7.0000   -0.8260   -0.9330 n         1 MOL     -0.141300
    141 C43         7.1270    0.6220   -0.7100 c3        1 MOL      0.088220
    142 C44         6.0510    1.3610    0.1360 c         1 MOL      0.318024
    143 O21         6.3340    2.3760    0.7200 o         1 MOL     -0.505831
    144 C45         7.3750    1.2960   -2.1050 c3        1 MOL     -0.187935
    145 C46         8.5830    2.2070   -2.1860 c3        1 MOL      0.361481
    146 C47         8.8570    2.9320   -3.5300 c3        1 MOL     -0.173532
    147 C48         9.8350    4.1200   -3.2740 c3        1 MOL     -0.066521
    148 N13        11.1950    3.7010   -2.9380 n4        1 MOL     -0.394792
    149 H67         6.6390   -1.1130   -1.8260 hn        1 MOL      0.197914
    150 H68         8.0980    0.7910   -0.2380 h1        1 MOL      0.055917
    151 H69         6.4450    1.8260   -2.3330 hc        1 MOL      0.029727
    152 H70         7.5430    0.4720   -2.7980 hc        1 MOL      0.029727
    153 H71         9.4520    1.6160   -1.8940 hc        1 MOL     -0.076023
    154 H72         8.4130    2.9180   -1.3690 hc        1 MOL     -0.076023
    155 H73         7.9090    3.2750   -3.9160 hc        1 MOL      0.072734
    156 H74         9.1290    2.1390   -4.2230 hc        1 MOL      0.072734
    157 H75         9.4440    4.8660   -2.5940 hx        1 MOL      0.129524
    158 H76         9.9840    4.6000   -4.2460 hx        1 MOL      0.129524
    159 H77        11.5320    3.1720   -3.7240 hn        1 MOL      0.346575
    160 H78        11.8010    4.4810   -2.7220 hn        1 MOL      0.346575
    161 H79        11.1260    3.2090   -2.0530 hn        1 MOL      0.346575
    162 N14         4.9730    0.6140    0.4590 n         1 MOL      0.069812
    163 C49         4.0180    1.1770    1.4960 c3        1 MOL     -0.029822
    164 C50         4.4480    0.6830    2.9000 c         1 MOL      0.367791
    165 O22         4.4400    1.5140    3.8150 o         1 MOL     -0.515122
    166 C51         2.6200    0.7970    1.1070 c3        1 MOL      0.121269
    167 C52         1.9400    1.4390   -0.1060 c3        1 MOL     -0.002518
    168 C53         0.5680    0.7540   -0.4520 c         1 MOL      0.680035
    169 O23         0.1690   -0.3310    0.0060 o         1 MOL     -0.724111
    170 O24        -0.1080    1.3380   -1.3040 o         1 MOL     -0.724111
    171 H80         4.7090   -0.2240   -0.0200 hn        1 MOL     -0.143102
    172 H81         3.9390    2.2580    1.4730 h1        1 MOL      0.071978
    173 H82         2.0250    1.0620    1.9780 hc        1 MOL      0.033615
    174 H83         2.5570   -0.2870    0.9730 hc        1 MOL      0.033615
    175 H84         2.6780    1.3110   -0.8950 hc        1 MOL     -0.048862
    176 H85         1.8370    2.5070    0.0960 hc        1 MOL     -0.048862
    177 N15         5.1560   -0.4750    2.9840 n         1 MOL     -0.039618
    178 C54         6.1110   -0.8390    4.0900 c3        1 MOL     -0.402684
    179 H86         6.8360   -0.0360    4.2220 h1        1 MOL      0.141259
    180 H87         5.5560   -0.9820    5.0170 h1        1 MOL      0.141259
    181 H88         6.6320   -1.7600    3.8320 h1        1 MOL      0.141259
    182 H89         5.1710   -1.0430    2.1470 hn        1 MOL      0.132474
    183 Ca1        -2.0630   -0.5030   -1.3300 Ca        1 MOL      1.743246
    184 O25        -1.2700   -2.7610   -2.9080 oh        1 MOL     -0.848857
    185 H90        -1.3460   -2.6850   -3.8540 ho        1 MOL      0.404175
    186 H91        -1.6670   -3.6090   -2.7010 ho        1 MOL      0.404175
    187 O26        -1.4440    0.1140   -3.8460 oh        1 MOL     -0.848857
    188 H92        -2.3020    0.5230   -3.9380 ho        1 MOL      0.404175
    189 H93        -1.1280   -0.0010   -4.7510 ho        1 MOL      0.404175
@<TRIPOS>BOND
     1    1    2 1   
     2    1    4 1   
     3    1    5 1   
     4    1    6 1   
     5    2    3 2   
     6    2    7 1   
     7    7    8 1   
     8    7   15 1   
     9    8    9 1   
    10    8   11 1   
    11    8   16 1   
    12    9   10 2   
    13    9   19 1   
    14   11   12 1   
    15   11   17 1   
    16   11   18 1   
    17   12   13 1   
    18   12   14 1   
    19   19   20 1   
    20   19   28 1   
    21   20   21 1   
    22   20   23 1   
    23   20   29 1   
    24   21   22 2   
    25   21   41 1   
    26   23   24 1   
    27   23   30 1   
    28   23   31 1   
    29   24   25 1   
    30   24   32 1   
    31   24   33 1   
    32   25   26 1   
    33   25   34 1   
    34   25   35 1   
    35   26   27 1   
    36   26   36 1   
    37   26   37 1   
    38   27   38 1   
    39   27   39 1   
    40   27   40 1   
    41   41   42 1   
    42   41   49 1   
    43   42   43 1   
    44   42   45 1   
    45   42   50 1   
    46   43   44 2   
    47   43   53 1   
    48   45   46 1   
    49   45   51 1   
    50   45   52 1   
    51   46   47 1   
    52   46   48 1   
    53   53   54 1   
    54   53   57 1   
    55   54   55 1   
    56   54   58 1   
    57   54   59 1   
    58   55   56 2   
    59   55   60 1   
    60   60   61 1   
    61   60   68 1   
    62   61   62 1   
    63   61   64 1   
    64   61   69 1   
    65   62   63 2   
    66   62   72 1   
    67   64   65 1   
    68   64   70 1   
    69   64   71 1   
    70   65   66 1   
    71   65   67 1   
    72   72   73 1   
    73   72   76 1   
    74   73   74 1   
    75   73   77 1   
    76   73   78 1   
    77   74   75 2   
    78   74   79 1   
    79   79   80 1   
    80   79   86 1   
    81   80   81 1   
    82   80   83 1   
    83   80   87 1   
    84   81   82 2   
    85   81   93 1   
    86   83   84 1   
    87   83   85 1   
    88   83   88 1   
    89   84   90 1   
    90   84   91 1   
    91   84   92 1   
    92   85   89 1   
    93   93   94 1   
    94   93  101 1   
    95   94   95 1   
    96   94   97 1   
    97   94  102 1   
    98   95   96 2   
    99   95  112 1   
   100   97   98 1   
   101   97   99 1   
   102   97  103 1   
   103   98  100 1   
   104   98  104 1   
   105   98  105 1   
   106   99  106 1   
   107   99  107 1   
   108   99  108 1   
   109  100  109 1   
   110  100  110 1   
   111  100  111 1   
   112  112  113 1   
   113  112  119 1   
   114  113  114 1   
   115  113  116 1   
   116  113  120 1   
   117  114  115 2   
   118  114  126 1   
   119  116  117 1   
   120  116  118 1   
   121  116  121 1   
   122  117  123 1   
   123  117  124 1   
   124  117  125 1   
   125  118  122 1   
   126  126  127 1   
   127  126  133 1   
   128  127  128 1   
   129  127  130 1   
   130  127  134 1   
   131  128  129 2   
   132  128  140 1   
   133  130  131 1   
   134  130  132 1   
   135  130  135 1   
   136  131  137 1   
   137  131  138 1   
   138  131  139 1   
   139  132  136 1   
   140  140  141 1   
   141  140  149 1   
   142  141  142 1   
   143  141  144 1   
   144  141  150 1   
   145  142  143 2   
   146  142  162 1   
   147  144  145 1   
   148  144  151 1   
   149  144  152 1   
   150  145  146 1   
   151  145  153 1   
   152  145  154 1   
   153  146  147 1   
   154  146  155 1   
   155  146  156 1   
   156  147  148 1   
   157  147  157 1   
   158  147  158 1   
   159  148  159 1   
   160  148  160 1   
   161  148  161 1   
   162  162  163 1   
   163  162  171 1   
   164  163  164 1   
   165  163  166 1   
   166  163  172 1   
   167  164  165 2   
   168  164  177 1   
   169  166  167 1   
   170  166  173 1   
   171  166  174 1   
   172  167  168 1   
   173  167  175 1   
   174  167  176 1   
   175  168  169 1   
   176  168  170 1   
   177  177  178 1   
   178  177  182 1   
   179  178  179 1   
   180  178  180 1   
   181  178  181 1   
   182  184  185 1   
   183  184  186 1   
   184  187  188 1   
   185  187  189 1   
@<TRIPOS>SUBSTRUCTURE
     1 MOL         1 TEMP              0 ****  ****    0 ROOT
