@<TRIPOS>MOLECULE
MOL
  179   176     1     0     0
SMALL
resp


@<TRIPOS>ATOM
      1 C1         -0.2370    4.2390    5.3620 c3        1 MOL     -0.319164
      2 C2         -0.3440    3.5510    3.9970 c         1 MOL      0.543333
      3 O1          0.4600    3.8060    3.0840 o         1 MOL     -0.532954
      4 H1          0.5660    3.7800    5.9370 hc        1 MOL      0.087038
      5 H2         -0.0220    5.2980    5.2190 hc        1 MOL      0.087038
      6 H3         -1.1780    4.1290    5.9000 hc        1 MOL      0.087038
      7 N1         -1.4050    2.7810    3.8160 n         1 MOL     -0.336669
      8 C3         -1.9480    2.2560    2.5260 c3        1 MOL      0.014124
      9 C4         -2.8100    3.2640    1.7760 c         1 MOL      0.466933
     10 O2         -4.0030    3.3530    1.8990 o         1 MOL     -0.459123
     11 C5         -2.6190    0.8850    2.7810 c3        1 MOL     -0.149517
     12 C6         -3.1530    0.1850    1.6090 c         1 MOL      0.714109
     13 O3         -3.9590   -0.7900    1.8000 o         1 MOL     -0.727178
     14 O4         -2.8290    0.5590    0.4390 o         1 MOL     -0.727178
     15 H4         -1.9840    2.5050    4.6050 hn        1 MOL      0.266449
     16 H5         -1.0390    2.0510    1.9580 h1        1 MOL     -0.010358
     17 H6         -3.4010    1.2040    3.4730 hc        1 MOL      0.043110
     18 H7         -1.9830    0.2610    3.4140 hc        1 MOL      0.043110
     19 N2         -2.0770    4.2270    1.1750 n         1 MOL     -0.282055
     20 C7         -2.7410    5.4940    0.7430 c3        1 MOL     -0.119719
     21 C8         -3.7610    5.1480   -0.3840 c         1 MOL      0.418630
     22 O5         -4.9060    5.6280   -0.3590 o         1 MOL     -0.521887
     23 C9         -1.6870    6.6230    0.3780 c3        1 MOL      0.020433
     24 C10        -2.1870    8.0150    0.2100 c3        1 MOL     -0.032948
     25 C11        -1.1190    8.7910   -0.4620 c3        1 MOL     -0.145375
     26 C12        -1.1990   10.3700   -0.3290 c3        1 MOL      0.082580
     27 N3         -2.3560   10.9150   -1.0580 n4        1 MOL     -0.353854
     28 H8         -1.0740    4.1870    1.2880 hn        1 MOL      0.263873
     29 H9         -3.2280    5.8720    1.6380 h1        1 MOL      0.091218
     30 H10        -1.2660    6.2550   -0.5470 hc        1 MOL      0.050404
     31 H11        -0.8940    6.5570    1.1240 hc        1 MOL      0.050404
     32 H12        -2.2870    8.4810    1.1840 hc        1 MOL      0.032073
     33 H13        -3.1760    8.0090   -0.2450 hc        1 MOL      0.032073
     34 H14        -1.0670    8.5200   -1.5100 hc        1 MOL      0.073109
     35 H15        -0.1510    8.5820   -0.0180 hc        1 MOL      0.073109
     36 H16        -0.2850   10.8570   -0.6870 hx        1 MOL      0.080505
     37 H17        -1.3200   10.7210    0.6970 hx        1 MOL      0.080505
     38 H18        -2.3010   10.6960   -2.0420 hn        1 MOL      0.324633
     39 H19        -3.1060   10.3790   -0.6310 hn        1 MOL      0.324633
     40 H20        -2.5490   11.8990   -0.9550 hn        1 MOL      0.324633
     41 N4         -3.4070    4.3220   -1.3670 n         1 MOL     -0.263009
     42 C13        -4.3450    3.8260   -2.4020 c3        1 MOL     -0.068346
     43 C14        -5.4280    2.8910   -1.8120 c         1 MOL      0.384206
     44 O6         -6.5200    2.7650   -2.4040 o         1 MOL     -0.536144
     45 C15        -3.6540    2.9500   -3.3910 c3        1 MOL     -0.129033
     46 C16        -2.6730    1.9460   -2.8520 c         1 MOL      0.686442
     47 O7         -2.9030    0.7750   -3.1060 o         1 MOL     -0.712333
     48 O8         -1.6760    2.3240   -2.1930 o         1 MOL     -0.712333
     49 H21        -2.5200    3.8390   -1.3580 hn        1 MOL      0.216181
     50 H22        -4.9020    4.6080   -2.9210 h1        1 MOL      0.107474
     51 H23        -3.0780    3.6290   -4.0160 hc        1 MOL      0.056532
     52 H24        -4.2780    2.5690   -4.1960 hc        1 MOL      0.056532
     53 N5         -5.1580    2.2200   -0.6800 n         1 MOL      0.051487
     54 C17        -6.0740    1.5080    0.1790 c3        1 MOL      0.027574
     55 C18        -6.5230    0.0700   -0.3090 c         1 MOL      0.367230
     56 O9         -7.7610   -0.1730   -0.3390 o         1 MOL     -0.547541
     57 H25        -4.2560    2.3730   -0.2710 hn        1 MOL      0.034610
     58 H26        -6.9630    2.1090    0.3770 h1        1 MOL      0.044210
     59 H27        -5.5770    1.4490    1.1470 h1        1 MOL      0.044210
     60 N6         -5.5950   -0.7070   -0.8420 n         1 MOL      0.028372
     61 C19        -5.8770   -2.0380   -1.3590 c3        1 MOL     -0.260646
     62 C20        -5.5660   -3.2530   -0.4380 c         1 MOL      0.361415
     63 O10        -5.4920   -4.4010   -0.8940 o         1 MOL     -0.434818
     64 C21        -4.9970   -2.2100   -2.5960 c3        1 MOL      0.035077
     65 C22        -3.5290   -2.5450   -2.2800 c         1 MOL      0.272634
     66 N7         -2.8680   -3.2830   -3.1000 n         1 MOL     -0.589503
     67 O11        -2.8020   -2.0230   -1.4200 o         1 MOL     -0.314692
     68 H28        -4.6560   -0.3540   -0.9680 hn        1 MOL     -0.026068
     69 H29        -6.9280   -2.0970   -1.6420 h1        1 MOL      0.173648
     70 H30        -5.0380   -1.2670   -3.1440 hc        1 MOL      0.061324
     71 H31        -5.4180   -2.9190   -3.3110 hc        1 MOL      0.061324
     72 H32        -3.3170   -3.6550   -3.9290 hn        1 MOL      0.314620
     73 H33        -1.9140   -3.5460   -2.9000 hn        1 MOL      0.314620
     74 N8         -5.5240   -3.0020    0.8760 n         1 MOL     -0.270600
     75 C23        -5.0550   -3.9640    1.8760 c3        1 MOL     -0.411209
     76 C24        -3.5800   -4.2490    2.1070 c         1 MOL      0.849581
     77 O12        -3.3720   -5.0560    2.9910 o         1 MOL     -0.634416
     78 H34        -5.5130   -2.0340    1.1500 hn        1 MOL      0.326801
     79 H35        -5.4610   -4.9520    1.6570 h1        1 MOL      0.164382
     80 H36        -5.3800   -3.5910    2.8480 h1        1 MOL      0.164382
     81 N9         -2.6970   -3.6040    1.4040 n         1 MOL     -0.815569
     82 C25        -1.3040   -4.0370    1.1960 c3        1 MOL      0.588440
     83 C26        -0.2960   -2.8730    1.1450 c         1 MOL      0.345581
     84 O13        -0.6710   -1.7650    0.7500 o         1 MOL     -0.604242
     85 C27        -1.1470   -4.8720   -0.0850 c3        1 MOL     -0.041659
     86 C28        -1.8470   -6.1850    0.0220 ca        1 MOL     -0.130068
     87 C29        -3.0110   -6.4280   -0.7270 ca        1 MOL     -0.058397
     88 C30        -1.4800   -7.1700    0.9360 ca        1 MOL     -0.058397
     89 C31        -3.7010   -7.6610   -0.7280 ca        1 MOL     -0.273411
     90 C32        -2.1700   -8.4150    0.9760 ca        1 MOL     -0.273411
     91 C33        -3.2620   -8.6930    0.1070 ca        1 MOL      0.320515
     92 O14        -3.9300   -9.8440    0.1770 oh        1 MOL     -0.453006
     93 H37        -3.1160   -2.9380    0.7660 hn        1 MOL      0.541559
     94 H38        -0.9360   -4.5260    2.0930 h1        1 MOL     -0.041050
     95 H39        -0.0930   -4.9690   -0.3310 hc        1 MOL      0.013438
     96 H40        -1.6380   -4.2480   -0.8390 hc        1 MOL      0.013438
     97 H41        -3.2890   -5.6540   -1.4170 ha        1 MOL      0.075932
     98 H42        -0.5650   -7.0640    1.5030 ha        1 MOL      0.075932
     99 H43        -4.5660   -7.8510   -1.3470 ha        1 MOL      0.144443
    100 H44        -1.8410   -9.1770    1.6640 ha        1 MOL      0.144443
    101 H45        -3.5180  -10.4370    0.8120 ho        1 MOL      0.350469
    102 N10         0.9390   -3.0180    1.6100 n         1 MOL     -0.479216
    103 C34         2.0480   -2.0910    1.5990 c3        1 MOL      0.069258
    104 C35         3.2720   -2.8000    0.9750 c         1 MOL      0.520827
    105 O15         3.7500   -3.7750    1.5700 o         1 MOL     -0.534457
    106 C36         2.1950   -1.2890    2.9500 c3        1 MOL     -0.045166
    107 C37         0.9100   -0.6030    3.3690 c3        1 MOL     -0.015165
    108 C38         3.3590   -0.2960    2.9340 c3        1 MOL     -0.088768
    109 C39         0.8930    0.1050    4.6620 c3        1 MOL     -0.172631
    110 H46         1.2210   -3.9310    1.9360 hn        1 MOL      0.283079
    111 H47         1.6220   -1.3610    0.9090 h1        1 MOL      0.000922
    112 H48         2.4490   -2.0470    3.7000 hc        1 MOL      0.038616
    113 H49         0.0460   -1.2740    3.3510 hc        1 MOL      0.092169
    114 H50         0.6550    0.1000    2.5630 hc        1 MOL      0.092169
    115 H51         4.2510   -0.7840    2.5420 hc        1 MOL      0.031518
    116 H52         3.1000    0.6380    2.4380 hc        1 MOL      0.031518
    117 H53         3.4900    0.0350    3.9640 hc        1 MOL      0.031518
    118 H54         1.1480   -0.5020    5.5180 hc        1 MOL      0.042032
    119 H55         1.5500    0.9740    4.6410 hc        1 MOL      0.042032
    120 H56        -0.1020    0.4630    4.9580 hc        1 MOL      0.042032
    121 N11         3.8090   -2.4070   -0.1610 n         1 MOL     -0.341830
    122 C40         4.9720   -2.9300   -0.8120 c3        1 MOL      0.036070
    123 C41         6.2200   -2.3750   -0.1250 c         1 MOL      0.297218
    124 O16         6.1370   -1.5890    0.8240 o         1 MOL     -0.317537
    125 C42         4.9620   -2.5440   -2.2770 c3        1 MOL     -0.197846
    126 O17         4.9410   -1.1360   -2.4050 oh        1 MOL     -0.357971
    127 H57         3.4490   -1.5560   -0.5520 hn        1 MOL      0.232770
    128 H58         4.9980   -4.0270   -0.8320 h1        1 MOL      0.098901
    129 H59         4.0890   -2.9960   -2.7490 h1        1 MOL      0.103636
    130 H60         5.8550   -2.8600   -2.8160 h1        1 MOL      0.103636
    131 H61         4.3240   -0.9390   -3.1050 ho        1 MOL      0.373944
    132 N12         7.3950   -2.6590   -0.6620 n         1 MOL     -0.245680
    133 C43         8.7100   -2.1010   -0.3160 c3        1 MOL      0.032795
    134 C44         8.8860   -0.5630   -0.7470 c         1 MOL      0.450255
    135 O18         9.4400    0.2850   -0.0120 o         1 MOL     -0.504950
    136 C45         9.8050   -3.0860   -0.8910 c3        1 MOL     -0.161361
    137 H62         7.3390   -3.4780   -1.2560 hn        1 MOL      0.230582
    138 H63         8.7510   -2.1570    0.7710 h1        1 MOL      0.086769
    139 H64         9.5680   -4.1420   -0.7210 hc        1 MOL      0.057204
    140 H65         9.9390   -2.9290   -1.9670 hc        1 MOL      0.057204
    141 H66        10.7380   -2.7690   -0.4380 hc        1 MOL      0.057204
    142 N13         8.2970   -0.2050   -1.8570 n         1 MOL     -0.329735
    143 C46         8.1210    1.0970   -2.4500 c3        1 MOL      0.084500
    144 C47         7.2100    1.9780   -1.5400 c         1 MOL      0.376197
    145 O19         7.5710    3.1020   -1.2720 o         1 MOL     -0.505910
    146 C48         7.4880    1.0660   -3.8500 c3        1 MOL     -0.264637
    147 H67         7.8610   -1.0050   -2.2970 hn        1 MOL      0.221407
    148 H68         9.0660    1.6220   -2.5880 h1        1 MOL      0.102447
    149 H69         8.0640    0.4520   -4.5430 hc        1 MOL      0.068432
    150 H70         6.5290    0.5740   -3.9320 hc        1 MOL      0.068432
    151 H71         7.4470    2.1050   -4.1760 hc        1 MOL      0.068432
    152 N14         6.1240    1.4690   -0.9360 n         1 MOL     -0.031118
    153 C49         5.2960    2.2360   -0.0450 c3        1 MOL     -0.166086
    154 C50         5.8880    2.2970    1.3360 c         1 MOL      0.489667
    155 O20         5.8520    3.3750    1.9660 o         1 MOL     -0.566722
    156 C51         3.7560    1.7860   -0.0040 c3        1 MOL      0.098297
    157 C52         3.1260    1.8580   -1.3860 c3        1 MOL     -0.079202
    158 C53         1.7980    1.1000   -1.2850 c         1 MOL      0.648494
    159 O21         1.5260    0.3220   -2.1950 o         1 MOL     -0.738547
    160 O22         0.9500    1.2940   -0.3230 o         1 MOL     -0.738547
    161 H72         5.8480    0.5920   -1.3510 hn        1 MOL      0.096635
    162 H73         5.2130    3.2540   -0.4340 h1        1 MOL      0.085663
    163 H74         3.2660    2.4570    0.7040 hc        1 MOL      0.053759
    164 H75         3.7080    0.7830    0.4030 hc        1 MOL      0.053759
    165 H76         3.7940    1.4180   -2.1330 hc        1 MOL     -0.004277
    166 H77         2.9940    2.9310   -1.5650 hc        1 MOL     -0.004277
    167 N15         6.3550    1.1800    1.8650 n         1 MOL     -0.040344
    168 C54         6.9230    1.1310    3.2210 c3        1 MOL     -0.348787
    169 H78         7.2910    0.1260    3.4240 h1        1 MOL      0.123861
    170 H79         7.7470    1.8400    3.2960 h1        1 MOL      0.123861
    171 H80         6.1530    1.3910    3.9480 h1        1 MOL      0.123861
    172 H81         6.2830    0.3100    1.3690 hn        1 MOL      0.041352
    173 Ca1        -0.9900   -0.1120   -1.3320 Ca        1 MOL      1.729057
    174 O23         0.2080   -2.4390   -2.0880 oh        1 MOL     -0.826556
    175 H82         0.8490   -3.1270   -1.9250 ho        1 MOL      0.405902
    176 H83         0.5130   -1.9960   -2.8710 ho        1 MOL      0.405902
    177 O24        -0.6320   -0.8240   -4.2710 oh        1 MOL     -0.826556
    178 H84        -1.4180   -0.3660   -4.5660 ho        1 MOL      0.405902
    179 H85        -0.3130   -1.2860   -5.0500 ho        1 MOL      0.405902
@<TRIPOS>BOND
     1    1    2 1   
     2    1    4 1   
     3    1    5 1   
     4    1    6 1   
     5    2    3 2   
     6    2    7 1   
     7    7    8 1   
     8    7   15 1   
     9    8    9 1   
    10    8   11 1   
    11    8   16 1   
    12    9   10 2   
    13    9   19 1   
    14   11   12 1   
    15   11   17 1   
    16   11   18 1   
    17   12   13 1   
    18   12   14 1   
    19   19   20 1   
    20   19   28 1   
    21   20   21 1   
    22   20   23 1   
    23   20   29 1   
    24   21   22 2   
    25   21   41 1   
    26   23   24 1   
    27   23   30 1   
    28   23   31 1   
    29   24   25 1   
    30   24   32 1   
    31   24   33 1   
    32   25   26 1   
    33   25   34 1   
    34   25   35 1   
    35   26   27 1   
    36   26   36 1   
    37   26   37 1   
    38   27   38 1   
    39   27   39 1   
    40   27   40 1   
    41   41   42 1   
    42   41   49 1   
    43   42   43 1   
    44   42   45 1   
    45   42   50 1   
    46   43   44 2   
    47   43   53 1   
    48   45   46 1   
    49   45   51 1   
    50   45   52 1   
    51   46   47 1   
    52   46   48 1   
    53   53   54 1   
    54   53   57 1   
    55   54   55 1   
    56   54   58 1   
    57   54   59 1   
    58   55   56 2   
    59   55   60 1   
    60   60   61 1   
    61   60   68 1   
    62   61   62 1   
    63   61   64 1   
    64   61   69 1   
    65   62   63 2   
    66   62   74 1   
    67   64   65 1   
    68   64   70 1   
    69   64   71 1   
    70   65   66 1   
    71   65   67 2   
    72   66   72 1   
    73   66   73 1   
    74   74   75 1   
    75   74   78 1   
    76   75   76 1   
    77   75   79 1   
    78   75   80 1   
    79   76   77 2   
    80   76   81 1   
    81   81   82 1   
    82   81   93 1   
    83   82   83 1   
    84   82   85 1   
    85   82   94 1   
    86   83   84 2   
    87   83  102 1   
    88   85   86 1   
    89   85   95 1   
    90   85   96 1   
    91   86   87 ar  
    92   86   88 ar  
    93   87   89 ar  
    94   87   97 1   
    95   88   90 ar  
    96   88   98 1   
    97   89   91 ar  
    98   89   99 1   
    99   90   91 ar  
   100   90  100 1   
   101   91   92 1   
   102   92  101 1   
   103  102  103 1   
   104  102  110 1   
   105  103  104 1   
   106  103  106 1   
   107  103  111 1   
   108  104  105 2   
   109  104  121 1   
   110  106  107 1   
   111  106  108 1   
   112  106  112 1   
   113  107  109 1   
   114  107  113 1   
   115  107  114 1   
   116  108  115 1   
   117  108  116 1   
   118  108  117 1   
   119  109  118 1   
   120  109  119 1   
   121  109  120 1   
   122  121  122 1   
   123  121  127 1   
   124  122  123 1   
   125  122  125 1   
   126  122  128 1   
   127  123  124 2   
   128  123  132 1   
   129  125  126 1   
   130  125  129 1   
   131  125  130 1   
   132  126  131 1   
   133  132  133 1   
   134  132  137 1   
   135  133  134 1   
   136  133  136 1   
   137  133  138 1   
   138  134  135 2   
   139  134  142 1   
   140  136  139 1   
   141  136  140 1   
   142  136  141 1   
   143  142  143 1   
   144  142  147 1   
   145  143  144 1   
   146  143  146 1   
   147  143  148 1   
   148  144  145 2   
   149  144  152 1   
   150  146  149 1   
   151  146  150 1   
   152  146  151 1   
   153  152  153 1   
   154  152  161 1   
   155  153  154 1   
   156  153  156 1   
   157  153  162 1   
   158  154  155 2   
   159  154  167 1   
   160  156  157 1   
   161  156  163 1   
   162  156  164 1   
   163  157  158 1   
   164  157  165 1   
   165  157  166 1   
   166  158  159 1   
   167  158  160 1   
   168  167  168 1   
   169  167  172 1   
   170  168  169 1   
   171  168  170 1   
   172  168  171 1   
   173  174  175 1   
   174  174  176 1   
   175  177  178 1   
   176  177  179 1   
@<TRIPOS>SUBSTRUCTURE
     1 MOL         1 TEMP              0 ****  ****    0 ROOT
