@<TRIPOS>MOLECULE
MOL
  179   176     1     0     0
SMALL
resp


@<TRIPOS>ATOM
      1 C1         -1.5070   -2.7190    6.0300 c3        1 MOL     -0.321884
      2 C2         -1.0050   -2.4710    4.5930 c         1 MOL      0.754341
      3 O1         -1.7950   -2.4050    3.7030 o         1 MOL     -0.634881
      4 H1         -0.9670   -3.5600    6.4630 hc        1 MOL      0.078794
      5 H2         -1.3370   -1.8280    6.6340 hc        1 MOL      0.078794
      6 H3         -2.5740   -2.9450    6.0090 hc        1 MOL      0.078794
      7 N1          0.2650   -2.1390    4.4050 n         1 MOL     -0.517393
      8 C3          0.8860   -2.0720    3.0500 c3        1 MOL      0.100179
      9 C4          1.0610   -3.5670    2.4430 c         1 MOL      0.384947
     10 O2          1.8290   -4.3760    2.9330 o         1 MOL     -0.522012
     11 C5          2.1480   -1.2930    3.1480 c3        1 MOL     -0.228963
     12 C6          2.8910   -1.3090    1.8010 c         1 MOL      0.927018
     13 O3          4.0430   -0.7750    1.7490 o         1 MOL     -0.801361
     14 O4          2.2690   -1.6090    0.7800 o         1 MOL     -0.801361
     15 H4          0.8580   -2.0730    5.2150 hn        1 MOL      0.294847
     16 H5          0.1690   -1.5820    2.3850 h1        1 MOL     -0.054737
     17 H6          2.7820   -1.6980    3.9470 hc        1 MOL      0.056887
     18 H7          1.8450   -0.2890    3.4280 hc        1 MOL      0.056887
     19 N2          0.2560   -3.8220    1.4520 n         1 MOL     -0.134945
     20 C7          0.2600   -5.1630    0.9390 c3        1 MOL     -0.070511
     21 C8          1.5070   -5.6600    0.1190 c         1 MOL      0.472609
     22 O5          1.6390   -6.8590   -0.1080 o         1 MOL     -0.541115
     23 C9         -0.9620   -5.2830    0.0070 c3        1 MOL     -0.339313
     24 C10        -0.5010   -4.7910   -1.4180 c3        1 MOL      0.176608
     25 C11        -1.7220   -4.5640   -2.3310 c3        1 MOL     -0.005944
     26 C12        -2.2250   -5.8870   -2.8480 c3        1 MOL      0.064051
     27 N3         -3.6220   -5.7390   -3.4040 n4        1 MOL     -0.380129
     28 H8         -0.3790   -3.1300    1.0870 hn        1 MOL      0.276088
     29 H9          0.1580   -5.9020    1.7440 h1        1 MOL      0.111892
     30 H10        -1.7040   -4.5880    0.3850 hc        1 MOL      0.111652
     31 H11        -1.3760   -6.2920   -0.0450 hc        1 MOL      0.111652
     32 H12         0.3020   -5.3930   -1.8280 hc        1 MOL      0.002513
     33 H13        -0.0840   -3.8150   -1.1550 hc        1 MOL      0.002513
     34 H14        -1.4120   -3.8870   -3.1280 hc        1 MOL      0.001368
     35 H15        -2.5980   -4.1800   -1.8260 hc        1 MOL      0.001368
     36 H16        -2.1090   -6.6340   -2.0540 hx        1 MOL      0.068817
     37 H17        -1.4760   -6.1180   -3.6050 hx        1 MOL      0.068817
     38 H18        -3.6610   -5.1630   -4.2360 hn        1 MOL      0.329698
     39 H19        -3.9880   -6.6620   -3.5810 hn        1 MOL      0.329698
     40 H20        -4.2630   -5.2440   -2.8060 hn        1 MOL      0.329698
     41 N4          2.4030   -4.7130   -0.2190 n         1 MOL     -0.234858
     42 C13         3.6020   -4.9890   -1.0290 c3        1 MOL     -0.122495
     43 C14         4.9200   -4.2460   -0.5710 c         1 MOL      0.578594
     44 O6          5.8310   -4.1030   -1.3850 o         1 MOL     -0.547887
     45 C15         3.2740   -4.7870   -2.5270 c3        1 MOL     -0.039599
     46 C16         2.5340   -3.4610   -2.7790 c         1 MOL      0.752693
     47 O7          1.8180   -3.4650   -3.7470 o         1 MOL     -0.728106
     48 O8          2.6990   -2.4520   -2.0130 o         1 MOL     -0.728106
     49 H21         2.1620   -3.7600   -0.0070 hn        1 MOL      0.121696
     50 H22         3.9990   -6.0040   -0.9500 h1        1 MOL      0.118734
     51 H23         2.8020   -5.6670   -2.9540 hc        1 MOL      0.032814
     52 H24         4.2180   -4.6440   -3.0500 hc        1 MOL      0.032814
     53 N5          4.9790   -3.7660    0.6800 n         1 MOL     -0.458809
     54 C17         6.2560   -3.2250    1.3280 c3        1 MOL     -0.026718
     55 C18         6.8670   -2.0090    0.5910 c         1 MOL      0.461147
     56 O9          8.0150   -1.6970    0.8780 o         1 MOL     -0.566153
     57 H25         4.0760   -3.7630    1.1410 hn        1 MOL      0.281035
     58 H26         7.0780   -3.9460    1.3860 h1        1 MOL      0.094511
     59 H27         6.1170   -2.9440    2.3730 h1        1 MOL      0.094511
     60 N6          6.1590   -1.4250   -0.3420 n         1 MOL     -0.155850
     61 C19         6.4920   -0.1630   -1.0980 c3        1 MOL     -0.074377
     62 C20         6.5130    1.1470   -0.2590 c         1 MOL      0.300458
     63 O10         6.9860    2.1690   -0.7210 o         1 MOL     -0.425508
     64 C21         5.5910   -0.0910   -2.4050 c3        1 MOL     -0.243669
     65 C22         4.4430    0.9420   -2.3050 c         1 MOL      0.414918
     66 N7          4.3480    1.8800   -3.2440 n         1 MOL     -0.625392
     67 O11         3.5360    0.8920   -1.4540 o         1 MOL     -0.506468
     68 H28         5.2290   -1.8120   -0.3610 hn        1 MOL      0.202836
     69 H29         7.5180   -0.2940   -1.4160 h1        1 MOL      0.144093
     70 H30         5.1780   -1.0510   -2.7190 hc        1 MOL      0.120970
     71 H31         6.2090    0.3700   -3.1770 hc        1 MOL      0.120970
     72 H32         4.9920    1.8440   -4.0250 hn        1 MOL      0.344229
     73 H33         3.6300    2.5870   -3.2180 hn        1 MOL      0.344229
     74 N8          5.9030    1.1810    0.9480 n         1 MOL     -0.161490
     75 C23         5.7880    2.3030    1.8670 c3        1 MOL     -0.092277
     76 C24         4.5730    3.2360    1.5960 c         1 MOL      0.346049
     77 O12         4.5590    4.3190    2.2130 o         1 MOL     -0.492005
     78 H34         5.5310    0.3380    1.3470 hn        1 MOL      0.251841
     79 H35         6.7620    2.7780    1.8630 h1        1 MOL      0.102689
     80 H36         5.8210    1.9350    2.8980 h1        1 MOL      0.102689
     81 N9          3.6230    2.8440    0.6970 n         1 MOL     -0.041237
     82 C25         2.4300    3.6790    0.5040 c3        1 MOL      0.036158
     83 C26         1.1250    2.8080    0.6310 c         1 MOL      0.479124
     84 O13         1.1570    1.6760    0.2240 o         1 MOL     -0.563103
     85 C27         2.4610    4.4690   -0.8170 c3        1 MOL      0.312839
     86 C28         3.6010    5.4110   -0.8400 ca        1 MOL     -0.238743
     87 C29         4.9930    4.9200   -1.0130 ca        1 MOL     -0.145955
     88 C30         3.3370    6.7610   -0.4210 ca        1 MOL     -0.145955
     89 C31         6.0830    5.8800   -1.0090 ca        1 MOL     -0.111043
     90 C32         4.4090    7.6450   -0.4530 ca        1 MOL     -0.111043
     91 C33         5.7370    7.1830   -0.7780 ca        1 MOL      0.190734
     92 O14         6.8190    7.9850   -0.5880 oh        1 MOL     -0.428930
     93 H37         3.6330    1.8740    0.4310 hn        1 MOL      0.121238
     94 H38         2.3900    4.4960    1.2110 h1        1 MOL      0.031676
     95 H39         1.5620    5.0860   -0.8790 hc        1 MOL     -0.063887
     96 H40         2.5370    3.7750   -1.6560 hc        1 MOL     -0.063887
     97 H41         5.1690    3.8850   -1.2630 ha        1 MOL      0.131252
     98 H42         2.3520    7.0670   -0.1060 ha        1 MOL      0.131252
     99 H43         7.0850    5.6330   -1.3270 ha        1 MOL      0.100907
    100 H44         4.2910    8.7010   -0.2800 ha        1 MOL      0.100907
    101 H45         6.6080    8.9060   -0.4470 ho        1 MOL      0.338077
    102 N10         0.0110    3.3980    1.1530 n         1 MOL     -0.527322
    103 C34        -1.3060    2.7560    1.2520 c3        1 MOL     -0.017337
    104 C35        -2.3920    3.5340    0.4650 c         1 MOL      0.597888
    105 O15        -2.7980    4.6770    0.7810 o         1 MOL     -0.549225
    106 C36        -1.7260    2.5800    2.7560 c3        1 MOL     -0.057920
    107 C37        -0.7130    1.5210    3.4200 c3        1 MOL      0.059375
    108 C38        -3.2240    2.2220    3.0490 c3        1 MOL     -0.071004
    109 C39        -1.0650    1.4470    4.9330 c3        1 MOL     -0.399366
    110 H46         0.1020    4.3020    1.5990 hn        1 MOL      0.339850
    111 H47        -1.4400    1.7480    0.8660 h1        1 MOL      0.043939
    112 H48        -1.4960    3.5200    3.2450 hc        1 MOL      0.059039
    113 H49         0.3480    1.6680    3.2190 hc        1 MOL      0.056831
    114 H50        -0.8850    0.5260    2.9910 hc        1 MOL      0.056831
    115 H51        -3.3530    2.5270    4.0830 hc        1 MOL      0.025443
    116 H52        -4.0020    2.7980    2.5420 hc        1 MOL      0.025443
    117 H53        -3.2830    1.1520    2.8650 hc        1 MOL      0.025443
    118 H54        -1.2270    2.4270    5.3620 hc        1 MOL      0.101036
    119 H55        -1.9540    0.8430    5.0970 hc        1 MOL      0.101036
    120 H56        -0.3390    0.9200    5.5490 hc        1 MOL      0.101036
    121 N11        -2.7810    2.8890   -0.6410 n         1 MOL     -0.397851
    122 C40        -3.9000    3.3590   -1.4670 c3        1 MOL     -0.060073
    123 C41        -5.2300    3.1740   -0.7680 c         1 MOL      0.376482
    124 O16        -5.2600    2.3450    0.1250 o         1 MOL     -0.349409
    125 C42        -3.8070    2.6470   -2.8490 c3        1 MOL     -0.103355
    126 O17        -4.2660    1.3430   -2.8160 oh        1 MOL     -0.535538
    127 H57        -2.4210    1.9650   -0.8100 hn        1 MOL      0.280721
    128 H58        -3.7030    4.4280   -1.4880 h1        1 MOL      0.094171
    129 H59        -2.8000    2.6700   -3.2500 h1        1 MOL      0.103450
    130 H60        -4.3540    3.3080   -3.5130 h1        1 MOL      0.103450
    131 H61        -3.5370    0.7870   -3.0940 ho        1 MOL      0.417535
    132 N12        -6.3710    3.6630   -1.3310 n         1 MOL     -0.305718
    133 C43        -7.6510    3.4470   -0.7560 c3        1 MOL      0.121405
    134 C44        -8.1360    2.0060   -0.7840 c         1 MOL      0.472497
    135 O18        -8.8360    1.5860    0.1020 o         1 MOL     -0.483817
    136 C45        -8.6330    4.3320   -1.4380 c3        1 MOL     -0.297032
    137 H62        -6.2800    4.4160   -2.0120 hn        1 MOL      0.260620
    138 H63        -7.6450    3.8000    0.2740 h1        1 MOL      0.088642
    139 H64        -9.6140    4.3000   -0.9440 hc        1 MOL      0.087833
    140 H65        -8.2170    5.3240   -1.2800 hc        1 MOL      0.087833
    141 H66        -8.6370    4.1140   -2.4980 hc        1 MOL      0.087833
    142 N13        -7.9040    1.2270   -1.8660 n         1 MOL     -0.407559
    143 C46        -8.1170   -0.2530   -1.9750 c3        1 MOL      0.129331
    144 C47        -7.3980   -0.9570   -0.7740 c         1 MOL      0.328611
    145 O19        -7.9760   -1.8880   -0.2380 o         1 MOL     -0.496498
    146 C48        -7.6150   -0.7680   -3.3300 c3        1 MOL     -0.236415
    147 H67        -7.5790    1.6420   -2.7370 hn        1 MOL      0.254525
    148 H68        -9.1780   -0.4650   -1.8550 h1        1 MOL      0.076870
    149 H69        -8.0990   -1.7190   -3.5500 hc        1 MOL      0.062805
    150 H70        -7.9620   -0.1180   -4.1320 hc        1 MOL      0.062805
    151 H71        -6.5290   -0.8190   -3.3260 hc        1 MOL      0.062805
    152 N14        -6.1920   -0.5460   -0.4060 n         1 MOL     -0.018968
    153 C49        -5.4840   -1.2330    0.7160 c3        1 MOL     -0.210730
    154 C50        -6.0510   -0.7750    2.0700 c         1 MOL      0.488338
    155 O20        -6.2400   -1.5880    2.9570 o         1 MOL     -0.539381
    156 C51        -3.9590   -0.8580    0.6200 c3        1 MOL      0.052903
    157 C52        -3.2200   -1.5780   -0.5260 c3        1 MOL      0.035636
    158 C53        -1.7630   -1.1200   -0.6170 c         1 MOL      0.467793
    159 O21        -1.4850   -0.1350   -1.4360 o         1 MOL     -0.618070
    160 O22        -0.8470   -1.7870   -0.1200 o         1 MOL     -0.618070
    161 H72        -5.8370    0.3300   -0.7520 hn        1 MOL      0.130454
    162 H73        -5.6610   -2.3050    0.5930 h1        1 MOL      0.123087
    163 H74        -3.4860   -1.1520    1.5550 hc        1 MOL      0.093296
    164 H75        -3.8120    0.2080    0.4760 hc        1 MOL      0.093296
    165 H76        -3.7710   -1.3970   -1.4510 hc        1 MOL     -0.062949
    166 H77        -3.2410   -2.6350   -0.2680 hc        1 MOL     -0.062949
    167 N15        -6.5300    0.4880    2.1330 n         1 MOL     -0.059235
    168 C54        -7.3370    0.9770    3.2640 c3        1 MOL     -0.248287
    169 H78        -8.1380    1.6150    2.8900 h1        1 MOL      0.101147
    170 H79        -7.7660    0.1290    3.7980 h1        1 MOL      0.101147
    171 H80        -6.7040    1.5510    3.9420 h1        1 MOL      0.101147
    172 H81        -6.3460    1.0410    1.3140 hn        1 MOL      0.035314
    173 Ca1         1.2040   -0.5680   -1.2880 Ca        1 MOL      1.766574
    174 O23         0.3760   -1.2570   -3.7500 oh        1 MOL     -0.916052
    175 H82        -0.1150   -1.3290   -4.5680 ho        1 MOL      0.427880
    176 H83         1.0170   -1.9620   -3.7890 ho        1 MOL      0.427880
    177 O24         0.7800    1.6820   -2.8860 oh        1 MOL     -0.916052
    178 H84         0.3600    1.4420   -3.7060 ho        1 MOL      0.427880
    179 H85         0.9340    2.6210   -2.9510 ho        1 MOL      0.427880
@<TRIPOS>BOND
     1    1    2 1   
     2    1    4 1   
     3    1    5 1   
     4    1    6 1   
     5    2    3 2   
     6    2    7 1   
     7    7    8 1   
     8    7   15 1   
     9    8    9 1   
    10    8   11 1   
    11    8   16 1   
    12    9   10 2   
    13    9   19 1   
    14   11   12 1   
    15   11   17 1   
    16   11   18 1   
    17   12   13 1   
    18   12   14 1   
    19   19   20 1   
    20   19   28 1   
    21   20   21 1   
    22   20   23 1   
    23   20   29 1   
    24   21   22 2   
    25   21   41 1   
    26   23   24 1   
    27   23   30 1   
    28   23   31 1   
    29   24   25 1   
    30   24   32 1   
    31   24   33 1   
    32   25   26 1   
    33   25   34 1   
    34   25   35 1   
    35   26   27 1   
    36   26   36 1   
    37   26   37 1   
    38   27   38 1   
    39   27   39 1   
    40   27   40 1   
    41   41   42 1   
    42   41   49 1   
    43   42   43 1   
    44   42   45 1   
    45   42   50 1   
    46   43   44 2   
    47   43   53 1   
    48   45   46 1   
    49   45   51 1   
    50   45   52 1   
    51   46   47 1   
    52   46   48 1   
    53   53   54 1   
    54   53   57 1   
    55   54   55 1   
    56   54   58 1   
    57   54   59 1   
    58   55   56 2   
    59   55   60 1   
    60   60   61 1   
    61   60   68 1   
    62   61   62 1   
    63   61   64 1   
    64   61   69 1   
    65   62   63 2   
    66   62   74 1   
    67   64   65 1   
    68   64   70 1   
    69   64   71 1   
    70   65   66 1   
    71   65   67 2   
    72   66   72 1   
    73   66   73 1   
    74   74   75 1   
    75   74   78 1   
    76   75   76 1   
    77   75   79 1   
    78   75   80 1   
    79   76   77 2   
    80   76   81 1   
    81   81   82 1   
    82   81   93 1   
    83   82   83 1   
    84   82   85 1   
    85   82   94 1   
    86   83   84 2   
    87   83  102 1   
    88   85   86 1   
    89   85   95 1   
    90   85   96 1   
    91   86   87 ar  
    92   86   88 ar  
    93   87   89 ar  
    94   87   97 1   
    95   88   90 ar  
    96   88   98 1   
    97   89   91 ar  
    98   89   99 1   
    99   90   91 ar  
   100   90  100 1   
   101   91   92 1   
   102   92  101 1   
   103  102  103 1   
   104  102  110 1   
   105  103  104 1   
   106  103  106 1   
   107  103  111 1   
   108  104  105 2   
   109  104  121 1   
   110  106  107 1   
   111  106  108 1   
   112  106  112 1   
   113  107  109 1   
   114  107  113 1   
   115  107  114 1   
   116  108  115 1   
   117  108  116 1   
   118  108  117 1   
   119  109  118 1   
   120  109  119 1   
   121  109  120 1   
   122  121  122 1   
   123  121  127 1   
   124  122  123 1   
   125  122  125 1   
   126  122  128 1   
   127  123  124 2   
   128  123  132 1   
   129  125  126 1   
   130  125  129 1   
   131  125  130 1   
   132  126  131 1   
   133  132  133 1   
   134  132  137 1   
   135  133  134 1   
   136  133  136 1   
   137  133  138 1   
   138  134  135 2   
   139  134  142 1   
   140  136  139 1   
   141  136  140 1   
   142  136  141 1   
   143  142  143 1   
   144  142  147 1   
   145  143  144 1   
   146  143  146 1   
   147  143  148 1   
   148  144  145 2   
   149  144  152 1   
   150  146  149 1   
   151  146  150 1   
   152  146  151 1   
   153  152  153 1   
   154  152  161 1   
   155  153  154 1   
   156  153  156 1   
   157  153  162 1   
   158  154  155 2   
   159  154  167 1   
   160  156  157 1   
   161  156  163 1   
   162  156  164 1   
   163  157  158 1   
   164  157  165 1   
   165  157  166 1   
   166  158  159 1   
   167  158  160 1   
   168  167  168 1   
   169  167  172 1   
   170  168  169 1   
   171  168  170 1   
   172  168  171 1   
   173  174  175 1   
   174  174  176 1   
   175  177  178 1   
   176  177  179 1   
@<TRIPOS>SUBSTRUCTURE
     1 MOL         1 TEMP              0 ****  ****    0 ROOT
