@<TRIPOS>MOLECULE
MOL
  179   176     1     0     0
SMALL
resp


@<TRIPOS>ATOM
      1 C1         -1.5440   -3.0720    6.7020 c3        1 MOL     -0.364439
      2 C2         -1.4270   -2.4570    5.2890 c         1 MOL      0.742116
      3 O1         -2.3870   -1.9680    4.7500 o         1 MOL     -0.559999
      4 H1         -2.2730   -3.8820    6.6850 hc        1 MOL      0.093278
      5 H2         -0.5750   -3.4630    7.0110 hc        1 MOL      0.093278
      6 H3         -1.8690   -2.3060    7.4060 hc        1 MOL      0.093278
      7 N1         -0.2670   -2.6280    4.6090 n         1 MOL     -0.700114
      8 C3         -0.2120   -2.3390    3.1710 c3        1 MOL      0.164936
      9 C4         -0.6200   -3.5690    2.3230 c         1 MOL      0.584583
     10 O2         -0.0590   -4.6320    2.6430 o         1 MOL     -0.530134
     11 C5          1.1230   -1.7680    2.7830 c3        1 MOL     -0.105785
     12 C6          1.1540   -1.5300    1.2540 c         1 MOL      0.292786
     13 O3          2.2760   -1.5910    0.6920 o         1 MOL     -0.558868
     14 O4          0.0970   -1.0990    0.7250 o         1 MOL     -0.558868
     15 H4          0.4540   -3.1560    5.0730 hn        1 MOL      0.341603
     16 H5         -0.9830   -1.6020    2.9050 h1        1 MOL      0.071860
     17 H6          1.9540   -2.4330    3.0580 hc        1 MOL      0.048264
     18 H7          1.3330   -0.8190    3.2620 hc        1 MOL      0.048264
     19 N2         -1.3680   -3.3800    1.2390 n         1 MOL     -0.386292
     20 C7         -1.7060   -4.4370    0.3820 c3        1 MOL      0.021236
     21 C8         -0.5990   -5.3650   -0.0730 c         1 MOL      0.397721
     22 O5         -0.7110   -6.5480    0.0690 o         1 MOL     -0.543542
     23 C9         -2.5380   -4.0790   -0.8900 c3        1 MOL      0.218459
     24 C10        -3.1880   -5.2480   -1.6380 c3        1 MOL     -0.487411
     25 C11        -3.9320   -4.6770   -2.8630 c3        1 MOL      0.464042
     26 C12        -4.7450   -5.6640   -3.6690 c3        1 MOL     -0.204449
     27 N3         -4.9430   -5.1500   -5.0340 n4        1 MOL     -0.276356
     28 H8         -1.6960   -2.4570    1.0160 hn        1 MOL      0.195185
     29 H9         -2.3870   -5.0260    0.9960 h1        1 MOL      0.075658
     30 H10        -1.8740   -3.4720   -1.5070 hc        1 MOL     -0.012890
     31 H11        -3.4170   -3.5250   -0.5500 hc        1 MOL     -0.012890
     32 H12        -3.8600   -5.7710   -0.9580 hc        1 MOL      0.118373
     33 H13        -2.4380   -5.9520   -2.0190 hc        1 MOL      0.118373
     34 H14        -3.2380   -4.3470   -3.6370 hc        1 MOL     -0.059306
     35 H15        -4.5430   -3.8100   -2.6090 hc        1 MOL     -0.059306
     36 H16        -5.7420   -5.7540   -3.2490 hx        1 MOL      0.128756
     37 H17        -4.0600   -6.5060   -3.7830 hx        1 MOL      0.128756
     38 H18        -5.3300   -5.9410   -5.5230 hn        1 MOL      0.312963
     39 H19        -5.4610   -4.2930   -5.1650 hn        1 MOL      0.312963
     40 H20        -4.0320   -5.0520   -5.4630 hn        1 MOL      0.312963
     41 N4          0.5450   -4.7850   -0.5030 n         1 MOL     -0.146670
     42 C13         1.7760   -5.4430   -1.0540 c3        1 MOL      0.100960
     43 C14         3.0710   -4.8980   -0.3490 c         1 MOL      0.315405
     44 O6          4.1660   -5.0390   -0.8720 o         1 MOL     -0.508534
     45 C15         1.9100   -5.1330   -2.5360 c3        1 MOL     -0.302645
     46 C16         1.9750   -3.5970   -2.9310 c         1 MOL      0.788000
     47 O7          1.9650   -3.3140   -4.1200 o         1 MOL     -0.699114
     48 O8          1.9350   -2.7070   -2.0530 o         1 MOL     -0.699114
     49 H21         0.4850   -3.8110   -0.7450 hn        1 MOL      0.154460
     50 H22         1.6900   -6.5140   -0.9180 h1        1 MOL      0.084935
     51 H23         1.0420   -5.6460   -2.9630 hc        1 MOL      0.068423
     52 H24         2.8300   -5.5210   -2.9490 hc        1 MOL      0.068423
     53 N5          2.9620   -4.5250    0.8730 n         1 MOL     -0.115684
     54 C17         4.0090   -4.3020    1.9040 c3        1 MOL     -0.018460
     55 C18         5.1800   -3.4810    1.4300 c         1 MOL      0.582431
     56 O9          6.2430   -3.6090    1.9920 o         1 MOL     -0.591062
     57 H25         2.0070   -4.6110    1.2050 hn        1 MOL      0.142686
     58 H26         4.3360   -5.2640    2.2840 h1        1 MOL      0.057744
     59 H27         3.5450   -3.7530    2.7240 h1        1 MOL      0.057744
     60 N6          5.0380   -2.5730    0.4250 n         1 MOL     -0.237153
     61 C19         6.0820   -1.8360   -0.2580 c3        1 MOL      0.039836
     62 C20         6.5260   -0.5810    0.4670 c         1 MOL      0.361820
     63 O10         7.2720    0.2240   -0.0660 o         1 MOL     -0.472130
     64 C21         5.6030   -1.6830   -1.7130 c3        1 MOL      0.015760
     65 C22         4.9970   -0.3420   -2.2070 c         1 MOL      0.197778
     66 N7          5.5080    0.2740   -3.2320 n         1 MOL     -0.591485
     67 O11         3.9770    0.1200   -1.6930 o         1 MOL     -0.240554
     68 H28         4.1110   -2.4180    0.0510 hn        1 MOL     -0.026248
     69 H29         6.9850   -2.4450   -0.3220 h1        1 MOL      0.106544
     70 H30         4.9920   -2.5040   -2.0850 hc        1 MOL      0.059778
     71 H31         6.5710   -1.8230   -2.2020 hc        1 MOL      0.059778
     72 H32         6.2800   -0.1700   -3.7140 hn        1 MOL      0.331855
     73 H33         5.1690    1.1110   -3.6770 hn        1 MOL      0.331855
     74 N8          6.0950   -0.3190    1.7030 n         1 MOL     -0.183678
     75 C23         6.5400    0.9040    2.3420 c3        1 MOL     -0.317315
     76 C24         5.6920    2.1740    1.9970 c         1 MOL      0.515197
     77 O12         5.9880    3.2150    2.4580 o         1 MOL     -0.526770
     78 H34         5.6660   -1.0640    2.2370 hn        1 MOL      0.254986
     79 H35         7.5500    1.1430    2.0380 h1        1 MOL      0.146758
     80 H36         6.5510    0.7850    3.4300 h1        1 MOL      0.146758
     81 N9          4.6930    1.9900    1.1360 n         1 MOL     -0.091951
     82 C25         3.7420    3.0850    0.8660 c3        1 MOL      0.313602
     83 C26         2.3600    2.5150    0.8960 c         1 MOL      0.010190
     84 O13         2.0270    1.4640    0.2860 o         1 MOL     -0.189064
     85 C27         3.9260    3.6240   -0.5280 c3        1 MOL     -0.024323
     86 C28         5.0350    4.5300   -0.7840 ca        1 MOL     -0.090188
     87 C29         6.1770    4.0160   -1.3500 ca        1 MOL     -0.058846
     88 C30         4.8760    5.9190   -0.6220 ca        1 MOL     -0.058846
     89 C31         7.2150    4.8580   -1.7610 ca        1 MOL     -0.309512
     90 C32         5.9690    6.7810   -1.0100 ca        1 MOL     -0.309512
     91 C33         7.1820    6.2470   -1.5790 ca        1 MOL      0.365016
     92 O14         8.2910    6.9600   -1.9160 oh        1 MOL     -0.481493
     93 H37         4.4230    1.0870    0.7750 hn        1 MOL     -0.013635
     94 H38         3.7230    3.7840    1.7050 h1        1 MOL     -0.015712
     95 H39         3.0290    4.1370   -0.8730 hc        1 MOL      0.028397
     96 H40         4.1200    2.8010   -1.2160 hc        1 MOL      0.028397
     97 H41         6.2230    2.9410   -1.4630 ha        1 MOL      0.098579
     98 H42         3.9040    6.3440   -0.4040 ha        1 MOL      0.098579
     99 H43         8.0610    4.3430   -2.2010 ha        1 MOL      0.146595
    100 H44         5.9350    7.8550   -0.9420 ha        1 MOL      0.146595
    101 H45         8.2600    7.8850   -1.6660 ho        1 MOL      0.365785
    102 N10         1.3600    3.1330    1.6030 n         1 MOL     -0.300458
    103 C34        -0.1070    2.6990    1.5300 c3        1 MOL      0.023637
    104 C35        -0.9230    3.7950    0.7680 c         1 MOL      0.371565
    105 O15        -0.8250    5.0320    1.1050 o         1 MOL     -0.560752
    106 C36        -0.6990    2.3550    2.8540 c3        1 MOL      0.185974
    107 C37        -2.0820    1.7920    2.7800 c3        1 MOL     -0.004140
    108 C38        -0.4260    3.4350    3.9710 c3        1 MOL     -0.233271
    109 C39        -2.4630    1.0580    4.0170 c3        1 MOL     -0.301166
    110 H46         1.5580    4.0230    2.0510 hn        1 MOL      0.295850
    111 H47        -0.1280    1.8240    0.8770 h1        1 MOL     -0.050091
    112 H48        -0.1680    1.4490    3.1480 hc        1 MOL      0.040820
    113 H49        -2.0720    1.0560    1.9710 hc        1 MOL      0.017817
    114 H50        -2.7950    2.6040    2.6310 hc        1 MOL      0.017817
    115 H51         0.6610    3.5490    4.0520 hc        1 MOL      0.046547
    116 H52        -0.9770    4.3620    3.8360 hc        1 MOL      0.046547
    117 H53        -0.7240    2.9160    4.8720 hc        1 MOL      0.046547
    118 H54        -3.3950    0.4940    4.0690 hc        1 MOL      0.076861
    119 H55        -1.6370    0.3800    4.2360 hc        1 MOL      0.076861
    120 H56        -2.5190    1.8060    4.8140 hc        1 MOL      0.076861
    121 N11        -1.8770    3.3370   -0.0160 n         1 MOL      0.003410
    122 C40        -2.8040    4.1910   -0.7690 c3        1 MOL     -0.123612
    123 C41        -4.2440    3.9370   -0.2460 c         1 MOL      0.580455
    124 O16        -4.5090    2.9080    0.3510 o         1 MOL     -0.542247
    125 C42        -2.6750    4.0610   -2.2800 c3        1 MOL      0.034220
    126 O17        -2.9120    2.7330   -2.6460 oh        1 MOL     -0.520411
    127 H57        -1.8780    2.3470   -0.2430 hn        1 MOL      0.108911
    128 H58        -2.5350    5.2290   -0.5520 h1        1 MOL      0.053483
    129 H59        -1.6710    4.3190   -2.6080 h1        1 MOL      0.063979
    130 H60        -3.4100    4.7270   -2.7350 h1        1 MOL      0.063979
    131 H61        -2.2270    2.1920   -2.2370 ho        1 MOL      0.343742
    132 N12        -5.2030    4.8000   -0.5330 n         1 MOL     -0.429479
    133 C43        -6.5360    4.7330    0.0030 c3        1 MOL      0.048009
    134 C44        -7.3490    3.4620   -0.3070 c         1 MOL      0.539890
    135 O18        -8.0340    3.0050    0.5690 o         1 MOL     -0.520272
    136 C45        -7.2500    5.9880   -0.5320 c3        1 MOL     -0.317688
    137 H62        -5.0260    5.6100   -1.1040 hn        1 MOL      0.295669
    138 H63        -6.4840    4.8440    1.0840 h1        1 MOL      0.113346
    139 H64        -6.7890    6.9550   -0.3170 hc        1 MOL      0.094326
    140 H65        -7.2570    5.9320   -1.6290 hc        1 MOL      0.094326
    141 H66        -8.2720    5.9120   -0.1680 hc        1 MOL      0.094326
    142 N13        -7.1060    2.8000   -1.4220 n         1 MOL     -0.439908
    143 C46        -7.7470    1.5180   -1.7320 c3        1 MOL      0.136260
    144 C47        -6.9890    0.3780   -1.0220 c         1 MOL      0.341700
    145 O19        -7.6670   -0.6580   -0.7270 o         1 MOL     -0.522713
    146 C48        -7.9440    1.4230   -3.2610 c3        1 MOL     -0.260221
    147 H67        -6.5920    3.2300   -2.1730 hn        1 MOL      0.286441
    148 H68        -8.7410    1.5780   -1.2900 h1        1 MOL      0.091533
    149 H69        -8.7530    0.7170   -3.4330 hc        1 MOL      0.077401
    150 H70        -8.2350    2.3440   -3.7660 hc        1 MOL      0.077401
    151 H71        -7.0120    1.1000   -3.7160 hc        1 MOL      0.077401
    152 N14        -5.6870    0.4690   -0.7570 n         1 MOL     -0.191630
    153 C49        -5.0000   -0.4010    0.2070 c3        1 MOL     -0.140758
    154 C50        -5.3570   -0.2150    1.6960 c         1 MOL      0.477389
    155 O20        -5.2280   -1.1700    2.4940 o         1 MOL     -0.533109
    156 C51        -3.4770   -0.2510   -0.0950 c3        1 MOL      0.159037
    157 C52        -3.0890   -0.5350   -1.5380 c3        1 MOL      0.094725
    158 C53        -1.5820   -0.2720   -1.7980 c         1 MOL      0.592965
    159 O21        -1.0040    0.8150   -1.4770 o         1 MOL     -0.645535
    160 O22        -0.8840   -1.1330   -2.3690 o         1 MOL     -0.645535
    161 H72        -5.2590    1.3640   -0.9590 hn        1 MOL      0.219835
    162 H73        -5.3070   -1.4210   -0.0000 h1        1 MOL      0.104890
    163 H74        -2.9220   -0.8930    0.5790 hc        1 MOL      0.013316
    164 H75        -3.2110    0.8030    0.0210 hc        1 MOL      0.013316
    165 H76        -3.5580    0.1980   -2.1990 hc        1 MOL     -0.101931
    166 H77        -3.2990   -1.5570   -1.8620 hc        1 MOL     -0.101931
    167 N15        -5.8700    0.9610    2.0200 n         1 MOL     -0.115204
    168 C54        -6.5160    1.1390    3.3440 c3        1 MOL     -0.279021
    169 H78        -7.2160    0.3220    3.5190 h1        1 MOL      0.115142
    170 H79        -5.7540    1.1380    4.1240 h1        1 MOL      0.115142
    171 H80        -7.0540    2.0870    3.3620 h1        1 MOL      0.115142
    172 H81        -6.0360    1.6060    1.2650 hn        1 MOL      0.184526
    173 Ca1         1.4120   -0.2520   -1.4090 Ca        1 MOL      1.622574
    174 O23         1.7090   -0.6160   -4.0450 oh        1 MOL     -0.871751
    175 H82         1.6350   -1.5630   -3.8970 ho        1 MOL      0.405419
    176 H83         2.5240   -0.5130   -4.5380 ho        1 MOL      0.405419
    177 O24         1.7640    2.1280   -2.6820 oh        1 MOL     -0.871751
    178 H84         1.1740    2.8790   -2.7170 ho        1 MOL      0.405419
    179 H85         2.4870    2.3600   -3.2690 ho        1 MOL      0.405419
@<TRIPOS>BOND
     1    1    2 1   
     2    1    4 1   
     3    1    5 1   
     4    1    6 1   
     5    2    3 2   
     6    2    7 1   
     7    7    8 1   
     8    7   15 1   
     9    8    9 1   
    10    8   11 1   
    11    8   16 1   
    12    9   10 2   
    13    9   19 1   
    14   11   12 1   
    15   11   17 1   
    16   11   18 1   
    17   12   13 1   
    18   12   14 1   
    19   19   20 1   
    20   19   28 1   
    21   20   21 1   
    22   20   23 1   
    23   20   29 1   
    24   21   22 2   
    25   21   41 1   
    26   23   24 1   
    27   23   30 1   
    28   23   31 1   
    29   24   25 1   
    30   24   32 1   
    31   24   33 1   
    32   25   26 1   
    33   25   34 1   
    34   25   35 1   
    35   26   27 1   
    36   26   36 1   
    37   26   37 1   
    38   27   38 1   
    39   27   39 1   
    40   27   40 1   
    41   41   42 1   
    42   41   49 1   
    43   42   43 1   
    44   42   45 1   
    45   42   50 1   
    46   43   44 2   
    47   43   53 1   
    48   45   46 1   
    49   45   51 1   
    50   45   52 1   
    51   46   47 1   
    52   46   48 1   
    53   53   54 1   
    54   53   57 1   
    55   54   55 1   
    56   54   58 1   
    57   54   59 1   
    58   55   56 2   
    59   55   60 1   
    60   60   61 1   
    61   60   68 1   
    62   61   62 1   
    63   61   64 1   
    64   61   69 1   
    65   62   63 2   
    66   62   74 1   
    67   64   65 1   
    68   64   70 1   
    69   64   71 1   
    70   65   66 1   
    71   65   67 2   
    72   66   72 1   
    73   66   73 1   
    74   74   75 1   
    75   74   78 1   
    76   75   76 1   
    77   75   79 1   
    78   75   80 1   
    79   76   77 2   
    80   76   81 1   
    81   81   82 1   
    82   81   93 1   
    83   82   83 1   
    84   82   85 1   
    85   82   94 1   
    86   83   84 2   
    87   83  102 1   
    88   85   86 1   
    89   85   95 1   
    90   85   96 1   
    91   86   87 ar  
    92   86   88 ar  
    93   87   89 ar  
    94   87   97 1   
    95   88   90 ar  
    96   88   98 1   
    97   89   91 ar  
    98   89   99 1   
    99   90   91 ar  
   100   90  100 1   
   101   91   92 1   
   102   92  101 1   
   103  102  103 1   
   104  102  110 1   
   105  103  104 1   
   106  103  106 1   
   107  103  111 1   
   108  104  105 2   
   109  104  121 1   
   110  106  107 1   
   111  106  108 1   
   112  106  112 1   
   113  107  109 1   
   114  107  113 1   
   115  107  114 1   
   116  108  115 1   
   117  108  116 1   
   118  108  117 1   
   119  109  118 1   
   120  109  119 1   
   121  109  120 1   
   122  121  122 1   
   123  121  127 1   
   124  122  123 1   
   125  122  125 1   
   126  122  128 1   
   127  123  124 2   
   128  123  132 1   
   129  125  126 1   
   130  125  129 1   
   131  125  130 1   
   132  126  131 1   
   133  132  133 1   
   134  132  137 1   
   135  133  134 1   
   136  133  136 1   
   137  133  138 1   
   138  134  135 2   
   139  134  142 1   
   140  136  139 1   
   141  136  140 1   
   142  136  141 1   
   143  142  143 1   
   144  142  147 1   
   145  143  144 1   
   146  143  146 1   
   147  143  148 1   
   148  144  145 2   
   149  144  152 1   
   150  146  149 1   
   151  146  150 1   
   152  146  151 1   
   153  152  153 1   
   154  152  161 1   
   155  153  154 1   
   156  153  156 1   
   157  153  162 1   
   158  154  155 2   
   159  154  167 1   
   160  156  157 1   
   161  156  163 1   
   162  156  164 1   
   163  157  158 1   
   164  157  165 1   
   165  157  166 1   
   166  158  159 1   
   167  158  160 1   
   168  167  168 1   
   169  167  172 1   
   170  168  169 1   
   171  168  170 1   
   172  168  171 1   
   173  174  175 1   
   174  174  176 1   
   175  177  178 1   
   176  177  179 1   
@<TRIPOS>SUBSTRUCTURE
     1 MOL         1 TEMP              0 ****  ****    0 ROOT
