@<TRIPOS>MOLECULE
MOL
  189   185     1     0     0
SMALL
resp


@<TRIPOS>ATOM
      1 C1         -0.1990    2.8370   -5.6140 c3        1 MOL     -0.248784
      2 C2          0.2860    2.5940   -4.1820 c         1 MOL      0.783307
      3 O1         -0.5630    2.5350   -3.2890 o         1 MOL     -0.617457
      4 H1          0.5760    2.5280   -6.3160 hc        1 MOL      0.061201
      5 H2         -1.1040    2.2580   -5.7950 hc        1 MOL      0.061201
      6 H3         -0.4110    3.8980   -5.7520 hc        1 MOL      0.061201
      7 N1          1.5910    2.2600   -3.9380 n         1 MOL     -0.687691
      8 C3          2.1160    2.1290   -2.5800 c3        1 MOL      0.045669
      9 C4          2.3810    3.4990   -1.9500 c         1 MOL      0.522806
     10 O2          2.7900    4.4280   -2.6650 o         1 MOL     -0.580228
     11 C5          3.3950    1.2660   -2.7020 c3        1 MOL     -0.191162
     12 C6          3.8890    0.7290   -1.3840 c         1 MOL      0.903555
     13 O3          3.3300    1.0480   -0.2680 o         1 MOL     -0.750895
     14 O4          4.8510   -0.0620   -1.4270 o         1 MOL     -0.750895
     15 H4          2.3120    2.2610   -4.6390 hn        1 MOL      0.362850
     16 H5          1.4860    1.5190   -1.9280 h1        1 MOL      0.086617
     17 H6          4.2120    1.7850   -3.2100 hc        1 MOL      0.045853
     18 H7          3.0500    0.3880   -3.2490 hc        1 MOL      0.045853
     19 N2          2.1860    3.7190   -0.6350 n         1 MOL     -0.284665
     20 C7          2.3220    4.9220    0.1620 c3        1 MOL      0.026233
     21 C8          3.3700    4.7720    1.2630 c         1 MOL      0.558488
     22 O5          3.7740    5.8200    1.8100 o         1 MOL     -0.587492
     23 C9          0.9620    5.3560    0.6240 c3        1 MOL     -0.050611
     24 C10        -0.0420    5.9020   -0.4400 c3        1 MOL      0.192434
     25 C11         0.3970    7.3680   -0.7990 c3        1 MOL     -0.354874
     26 C12        -0.7990    8.0570   -1.4150 c3        1 MOL      0.013196
     27 N3         -1.2040    7.4110   -2.6090 n4        1 MOL     -0.312610
     28 H8          1.7490    2.9590   -0.1330 hn        1 MOL      0.201138
     29 H9          2.6870    5.7380   -0.4620 h1        1 MOL      0.026442
     30 H10         1.1560    6.0620    1.4230 hc        1 MOL      0.016623
     31 H11         0.4880    4.4500    0.9850 hc        1 MOL      0.016623
     32 H12        -1.0100    5.8630    0.0490 hc        1 MOL      0.001839
     33 H13        -0.0250    5.3600   -1.3800 hc        1 MOL      0.001839
     34 H14         1.2180    7.4780   -1.5170 hc        1 MOL      0.147508
     35 H15         0.7080    7.8910    0.1100 hc        1 MOL      0.147508
     36 H16        -0.4190    9.0530   -1.6390 hx        1 MOL      0.085359
     37 H17        -1.6270    8.2260   -0.7260 hx        1 MOL      0.085359
     38 H18        -2.0010    7.8950   -2.9870 hn        1 MOL      0.321883
     39 H19        -0.4040    7.2130   -3.2000 hn        1 MOL      0.321883
     40 H20        -1.5760    6.4910   -2.4330 hn        1 MOL      0.321883
     41 N4          3.9290    3.5680    1.4980 n         1 MOL     -0.386092
     42 C13         4.9690    3.3820    2.5470 c3        1 MOL      0.150695
     43 C14         6.1920    2.7140    1.9200 c         1 MOL      0.288645
     44 O6          7.3060    2.7330    2.5100 o         1 MOL     -0.510539
     45 C15         4.4390    2.6360    3.8910 c3        1 MOL     -0.326351
     46 C16         3.5120    1.5050    3.6970 c         1 MOL      0.855496
     47 O7          2.5670    1.4030    4.5400 o         1 MOL     -0.717171
     48 O8          3.5860    0.7750    2.6600 o         1 MOL     -0.717171
     49 H21         3.5960    2.8380    0.8950 hn        1 MOL      0.233618
     50 H22         5.2080    4.3880    2.8780 h1        1 MOL      0.095557
     51 H23         3.9590    3.3900    4.5000 hc        1 MOL      0.086325
     52 H24         5.3070    2.2510    4.4220 hc        1 MOL      0.086325
     53 N5          6.0740    2.1770    0.6900 n         1 MOL     -0.088943
     54 C17         7.2360    1.5350    0.0250 c3        1 MOL     -0.388964
     55 C18         7.4820    0.0640    0.5550 c         1 MOL      0.580762
     56 O9          8.6020   -0.4010    0.3710 o         1 MOL     -0.582345
     57 H25         5.1330    2.0500    0.3290 hn        1 MOL      0.080703
     58 H26         8.1610    1.9770    0.3920 h1        1 MOL      0.171967
     59 H27         6.9890    1.5360   -1.0380 h1        1 MOL      0.171967
     60 N6          6.5820   -0.5680    1.3110 n         1 MOL     -0.205164
     61 C19         6.8090   -1.8810    1.9450 c3        1 MOL     -0.174600
     62 C20         6.9340   -3.0860    0.9450 c         1 MOL      0.544905
     63 O10         7.3960   -4.1510    1.3830 o         1 MOL     -0.548485
     64 C21         5.7060   -2.1370    2.9850 c3        1 MOL     -0.037981
     65 C22         4.2570   -2.3340    2.5290 c         1 MOL      0.459633
     66 O11         3.3130   -2.2750    3.3630 o         1 MOL     -0.623632
     67 O12         3.9970   -2.3160    1.3150 o         1 MOL     -0.623632
     68 H28         5.7240   -0.0640    1.4970 hn        1 MOL      0.234161
     69 H29         7.7480   -1.9380    2.4870 h1        1 MOL      0.115933
     70 H30         5.7740   -1.3700    3.7620 hc        1 MOL      0.057416
     71 H31         6.0500   -2.9490    3.6270 hc        1 MOL      0.057416
     72 N7          6.5900   -2.7670   -0.2990 n         1 MOL     -0.367662
     73 C23         6.5480   -3.7180   -1.4060 c3        1 MOL     -0.052846
     74 C24         5.1740   -4.3650   -1.6930 c         1 MOL      0.540230
     75 O13         5.1490   -5.2470   -2.5000 o         1 MOL     -0.573302
     76 H32         6.2610   -1.8460   -0.5790 hn        1 MOL      0.346859
     77 H33         7.2620   -4.5140   -1.1900 h1        1 MOL      0.071038
     78 H34         6.9420   -3.2430   -2.3080 h1        1 MOL      0.071038
     79 N8          4.1140   -3.8440   -1.0620 n         1 MOL     -0.271122
     80 C25         2.7880   -4.3730   -1.0930 c3        1 MOL     -0.072843
     81 C26         1.7380   -3.1960   -1.3150 c         1 MOL      0.605937
     82 O14         1.8790   -2.0230   -0.9760 o         1 MOL     -0.576681
     83 C27         2.4790   -5.2230    0.1580 c3        1 MOL      0.517309
     84 C28         2.5140   -6.6980   -0.3190 c3        1 MOL     -0.497538
     85 O15         3.5100   -5.1640    1.1400 oh        1 MOL     -0.680017
     86 H35         4.2240   -3.0100   -0.5100 hn        1 MOL      0.141962
     87 H36         2.6850   -5.0440   -1.9450 h1        1 MOL      0.072524
     88 H37         1.4650   -4.9670    0.4830 h1        1 MOL     -0.046064
     89 H38         3.7140   -4.2620    1.3730 ho        1 MOL      0.492773
     90 H39         3.5220   -6.9920   -0.5820 hc        1 MOL      0.122714
     91 H40         2.0560   -7.3060    0.4720 hc        1 MOL      0.122714
     92 H41         1.9480   -6.9210   -1.2220 hc        1 MOL      0.122714
     93 N9          0.5690   -3.5900   -1.9190 n         1 MOL     -0.667431
     94 C29        -0.5730   -2.6880   -2.1240 c3        1 MOL     -0.021131
     95 C30        -1.8750   -3.3000   -1.4560 c         1 MOL      0.544828
     96 O16        -2.3310   -4.3960   -1.7860 o         1 MOL     -0.545459
     97 C31        -0.8170   -2.5210   -3.6840 c3        1 MOL      0.271483
     98 C32         0.4610   -1.8190   -4.3540 c3        1 MOL      0.058398
     99 C33        -2.0380   -1.6560   -3.9760 c3        1 MOL     -0.665016
    100 C34         0.3810   -1.9970   -5.9020 c3        1 MOL     -0.292563
    101 H42         0.4830   -4.5280   -2.2910 hn        1 MOL      0.327639
    102 H43        -0.4000   -1.6570   -1.8140 h1        1 MOL      0.063905
    103 H44        -1.0580   -3.5020   -4.1090 hc        1 MOL     -0.006537
    104 H45         1.3950   -2.2790   -4.0120 hc        1 MOL      0.048316
    105 H46         0.4850   -0.7680   -4.0810 hc        1 MOL      0.048316
    106 H47        -2.8950   -2.0510   -3.4180 hc        1 MOL      0.153110
    107 H48        -1.7200   -0.6510   -3.7030 hc        1 MOL      0.153110
    108 H49        -2.4050   -1.6030   -5.0010 hc        1 MOL      0.153110
    109 H50         1.2950   -1.6360   -6.3820 hc        1 MOL      0.067706
    110 H51         0.2650   -3.0150   -6.2560 hc        1 MOL      0.067706
    111 H52        -0.3550   -1.2980   -6.3200 hc        1 MOL      0.067706
    112 N10        -2.5640   -2.4860   -0.6810 n         1 MOL     -0.393291
    113 C35        -3.8720   -2.8680    0.0510 c3        1 MOL     -0.007069
    114 C36        -5.0690   -2.3660   -0.6350 c         1 MOL      0.481092
    115 O17        -5.0030   -1.3300   -1.2700 o         1 MOL     -0.334575
    116 C37        -3.8120   -2.5400    1.5540 c3        1 MOL      0.161646
    117 C38        -2.4220   -2.5380    2.2650 c3        1 MOL     -0.531793
    118 O18        -4.2970   -1.2360    1.7300 oh        1 MOL     -0.277836
    119 H53        -2.2130   -1.5630   -0.4640 hn        1 MOL      0.520106
    120 H54        -3.9720   -3.9490   -0.0460 h1        1 MOL      0.054841
    121 H55        -4.4040   -3.1870    2.2080 h1        1 MOL      0.025131
    122 H56        -4.2070   -1.1860    2.6850 ho        1 MOL      0.288720
    123 H57        -1.7530   -1.7230    1.9850 hc        1 MOL      0.146711
    124 H58        -2.6910   -2.4620    3.3220 hc        1 MOL      0.146711
    125 H59        -1.8900   -3.4570    2.0130 hc        1 MOL      0.146711
    126 N11        -6.2680   -2.8340   -0.2200 n         1 MOL     -0.412876
    127 C39        -7.5930   -2.3610   -0.5750 c3        1 MOL     -0.161682
    128 C40        -7.8480   -0.9000   -0.2260 c         1 MOL      0.378170
    129 O19        -8.6220   -0.2280   -0.8690 o         1 MOL     -0.516120
    130 C41        -8.7300   -3.1700   -0.0010 c3        1 MOL      0.449750
    131 C42        -8.7600   -4.6820   -0.2270 c3        1 MOL     -0.449865
    132 O20        -8.7410   -2.9430    1.3190 oh        1 MOL     -0.598409
    133 H60        -6.2880   -3.6460    0.3780 hn        1 MOL      0.284683
    134 H61        -7.6790   -2.2320   -1.6570 h1        1 MOL      0.123590
    135 H62        -9.5790   -2.7300   -0.5190 h1        1 MOL     -0.002999
    136 H63        -9.5750   -2.4750    1.4730 ho        1 MOL      0.369275
    137 H64        -9.6560   -4.9770    0.3320 hc        1 MOL      0.123693
    138 H65        -9.0380   -4.8220   -1.2750 hc        1 MOL      0.123693
    139 H66        -7.9190   -5.2970    0.0780 hc        1 MOL      0.123693
    140 N12        -7.0730   -0.3440    0.6930 n         1 MOL      0.016733
    141 C43        -7.0700    1.0710    1.0390 c3        1 MOL     -0.143790
    142 C44        -5.9670    1.8260    0.3040 c         1 MOL      0.411256
    143 O21        -6.3440    2.8850   -0.1840 o         1 MOL     -0.506335
    144 C45        -6.9680    1.2560    2.5630 c3        1 MOL     -0.047843
    145 C46        -8.0890    0.5000    3.2810 c3        1 MOL      0.019617
    146 C47        -8.2670    0.9920    4.6740 c3        1 MOL     -0.117798
    147 C48        -7.1160    0.6950    5.6620 c3        1 MOL     -0.003823
    148 N13        -7.4000    1.4030    6.9190 n4        1 MOL     -0.188258
    149 H67        -6.5270   -0.9760    1.2680 hn        1 MOL      0.037800
    150 H68        -8.0130    1.5530    0.7490 h1        1 MOL      0.113990
    151 H69        -7.0460    2.3300    2.7520 hc        1 MOL      0.021938
    152 H70        -5.9620    1.0320    2.8870 hc        1 MOL      0.021938
    153 H71        -7.9360   -0.5880    3.2590 hc        1 MOL      0.032115
    154 H72        -9.0020    0.6180    2.6950 hc        1 MOL      0.032115
    155 H73        -9.2480    0.7360    5.0650 hc        1 MOL      0.063953
    156 H74        -8.3080    2.0760    4.6280 hc        1 MOL      0.063953
    157 H75        -6.1700    1.0740    5.2740 hx        1 MOL      0.085227
    158 H76        -7.1050   -0.3700    5.8730 hx        1 MOL      0.085227
    159 H77        -7.3860    0.8560    7.7650 hn        1 MOL      0.270840
    160 H78        -6.7420    2.1460    7.0970 hn        1 MOL      0.270840
    161 H79        -8.3180    1.8170    6.8770 hn        1 MOL      0.270840
    162 N14        -4.8280    1.2660    0.0480 n         1 MOL      0.011098
    163 C49        -3.8680    1.9240   -0.8160 c3        1 MOL     -0.455415
    164 C50        -4.4500    2.0900   -2.2230 c         1 MOL      0.536057
    165 O22        -4.4950    3.1820   -2.8230 o         1 MOL     -0.584233
    166 C51        -2.4920    1.1690   -0.8260 c3        1 MOL      0.749810
    167 C52        -1.6430    1.6840    0.3420 c3        1 MOL     -0.039262
    168 C53        -0.2960    0.9650    0.3810 c         1 MOL      0.450285
    169 O23        -0.2120   -0.2630    0.1440 o         1 MOL     -0.604265
    170 O24         0.7020    1.5400    0.9400 o         1 MOL     -0.604265
    171 H80        -4.5600    0.4220    0.5320 hn        1 MOL      0.080414
    172 H81        -3.6560    2.9300   -0.4390 h1        1 MOL      0.112562
    173 H82        -2.0570    1.3040   -1.8120 hc        1 MOL     -0.246557
    174 H83        -2.7110    0.1130   -0.6590 hc        1 MOL     -0.246557
    175 H84        -2.2690    1.5020    1.2130 hc        1 MOL     -0.063184
    176 H85        -1.5200    2.7390    0.0570 hc        1 MOL     -0.063184
    177 N15        -5.0020    1.0410   -2.7950 n         1 MOL     -0.076110
    178 C54        -5.5700    1.0140   -4.1840 c3        1 MOL     -0.314245
    179 H86        -5.6490    2.0320   -4.5640 h1        1 MOL      0.122602
    180 H87        -4.9150    0.4340   -4.8340 h1        1 MOL      0.122602
    181 H88        -6.5600    0.5570   -4.1640 h1        1 MOL      0.122602
    182 H89        -5.0790    0.2030   -2.2490 hn        1 MOL      0.093098
    183 Ca1         2.0240   -0.6490    1.2130 Ca        1 MOL      1.659892
    184 O25         0.8210   -0.1790    3.5510 oh        1 MOL     -0.829912
    185 H90         0.1250   -0.4280    4.1630 ho        1 MOL      0.379366
    186 H91         1.3360    0.4820    4.0290 ho        1 MOL      0.379366
    187 O26         0.6710   -2.9770    1.7170 oh        1 MOL     -0.829912
    188 H92        -0.2790   -2.8980    1.8350 ho        1 MOL      0.379366
    189 H93         0.9230   -3.7000    2.3040 ho        1 MOL      0.379366
@<TRIPOS>BOND
     1    1    2 1   
     2    1    4 1   
     3    1    5 1   
     4    1    6 1   
     5    2    3 2   
     6    2    7 1   
     7    7    8 1   
     8    7   15 1   
     9    8    9 1   
    10    8   11 1   
    11    8   16 1   
    12    9   10 2   
    13    9   19 1   
    14   11   12 1   
    15   11   17 1   
    16   11   18 1   
    17   12   13 1   
    18   12   14 1   
    19   19   20 1   
    20   19   28 1   
    21   20   21 1   
    22   20   23 1   
    23   20   29 1   
    24   21   22 2   
    25   21   41 1   
    26   23   24 1   
    27   23   30 1   
    28   23   31 1   
    29   24   25 1   
    30   24   32 1   
    31   24   33 1   
    32   25   26 1   
    33   25   34 1   
    34   25   35 1   
    35   26   27 1   
    36   26   36 1   
    37   26   37 1   
    38   27   38 1   
    39   27   39 1   
    40   27   40 1   
    41   41   42 1   
    42   41   49 1   
    43   42   43 1   
    44   42   45 1   
    45   42   50 1   
    46   43   44 2   
    47   43   53 1   
    48   45   46 1   
    49   45   51 1   
    50   45   52 1   
    51   46   47 1   
    52   46   48 1   
    53   53   54 1   
    54   53   57 1   
    55   54   55 1   
    56   54   58 1   
    57   54   59 1   
    58   55   56 2   
    59   55   60 1   
    60   60   61 1   
    61   60   68 1   
    62   61   62 1   
    63   61   64 1   
    64   61   69 1   
    65   62   63 2   
    66   62   72 1   
    67   64   65 1   
    68   64   70 1   
    69   64   71 1   
    70   65   66 1   
    71   65   67 1   
    72   72   73 1   
    73   72   76 1   
    74   73   74 1   
    75   73   77 1   
    76   73   78 1   
    77   74   75 2   
    78   74   79 1   
    79   79   80 1   
    80   79   86 1   
    81   80   81 1   
    82   80   83 1   
    83   80   87 1   
    84   81   82 2   
    85   81   93 1   
    86   83   84 1   
    87   83   85 1   
    88   83   88 1   
    89   84   90 1   
    90   84   91 1   
    91   84   92 1   
    92   85   89 1   
    93   93   94 1   
    94   93  101 1   
    95   94   95 1   
    96   94   97 1   
    97   94  102 1   
    98   95   96 2   
    99   95  112 1   
   100   97   98 1   
   101   97   99 1   
   102   97  103 1   
   103   98  100 1   
   104   98  104 1   
   105   98  105 1   
   106   99  106 1   
   107   99  107 1   
   108   99  108 1   
   109  100  109 1   
   110  100  110 1   
   111  100  111 1   
   112  112  113 1   
   113  112  119 1   
   114  113  114 1   
   115  113  116 1   
   116  113  120 1   
   117  114  115 2   
   118  114  126 1   
   119  116  117 1   
   120  116  118 1   
   121  116  121 1   
   122  117  123 1   
   123  117  124 1   
   124  117  125 1   
   125  118  122 1   
   126  126  127 1   
   127  126  133 1   
   128  127  128 1   
   129  127  130 1   
   130  127  134 1   
   131  128  129 2   
   132  128  140 1   
   133  130  131 1   
   134  130  132 1   
   135  130  135 1   
   136  131  137 1   
   137  131  138 1   
   138  131  139 1   
   139  132  136 1   
   140  140  141 1   
   141  140  149 1   
   142  141  142 1   
   143  141  144 1   
   144  141  150 1   
   145  142  143 2   
   146  142  162 1   
   147  144  145 1   
   148  144  151 1   
   149  144  152 1   
   150  145  146 1   
   151  145  153 1   
   152  145  154 1   
   153  146  147 1   
   154  146  155 1   
   155  146  156 1   
   156  147  148 1   
   157  147  157 1   
   158  147  158 1   
   159  148  159 1   
   160  148  160 1   
   161  148  161 1   
   162  162  163 1   
   163  162  171 1   
   164  163  164 1   
   165  163  166 1   
   166  163  172 1   
   167  164  165 2   
   168  164  177 1   
   169  166  167 1   
   170  166  173 1   
   171  166  174 1   
   172  167  168 1   
   173  167  175 1   
   174  167  176 1   
   175  168  169 1   
   176  168  170 1   
   177  177  178 1   
   178  177  182 1   
   179  178  179 1   
   180  178  180 1   
   181  178  181 1   
   182  184  185 1   
   183  184  186 1   
   184  187  188 1   
   185  187  189 1   
@<TRIPOS>SUBSTRUCTURE
     1 MOL         1 TEMP              0 ****  ****    0 ROOT
