@<TRIPOS>MOLECULE
MOL
  175   173     1     0     0
SMALL
resp


@<TRIPOS>ATOM
      1 C1          0.5120   -2.8120    6.0770 c3        1 MOL     -0.362892
      2 C2          0.8870   -2.8690    4.5480 c         1 MOL      0.680834
      3 O1          0.3230   -3.7290    3.8830 o         1 MOL     -0.572765
      4 H1         -0.5340   -2.5280    6.1840 hc        1 MOL      0.085328
      5 H2          0.6700   -3.7910    6.5280 hc        1 MOL      0.085328
      6 H3          1.1410   -2.0760    6.5790 hc        1 MOL      0.085328
      7 N1          1.7260   -2.0020    4.0720 n         1 MOL     -0.483059
      8 C3          2.0330   -1.8100    2.6250 c3        1 MOL      0.060582
      9 C4          2.5870   -3.1050    2.0330 c         1 MOL      0.549557
     10 O2          3.6380   -3.6140    2.4640 o         1 MOL     -0.557778
     11 C5          2.9730   -0.5590    2.5780 c3        1 MOL     -0.577967
     12 C6          3.5030   -0.2900    1.2020 c         1 MOL      0.246836
     13 O3          4.3000    0.6050    0.9440 o         1 MOL     -0.249764
     14 O4          3.0310   -0.9560    0.2440 o         1 MOL     -0.249764
     15 H4          2.1440   -1.3300    4.6930 hn        1 MOL      0.293375
     16 H5          1.1630   -1.4930    2.0460 h1        1 MOL      0.106371
     17 H6          3.8170   -0.6720    3.2560 hc        1 MOL      0.195645
     18 H7          2.3830    0.3380    2.7760 hc        1 MOL      0.195645
     19 N2          1.8280   -3.6410    1.0550 n         1 MOL     -0.318425
     20 C7          2.0910   -4.9350    0.4040 c3        1 MOL      0.270616
     21 C8          3.1450   -4.8100   -0.7670 c         1 MOL      0.350108
     22 O5          4.0140   -5.6770   -0.9240 o         1 MOL     -0.527110
     23 C9          0.7820   -5.4650   -0.1490 c3        1 MOL     -0.397636
     24 H8          1.0870   -3.0860    0.6430 hn        1 MOL      0.210258
     25 H9          2.5500   -5.6120    1.1220 h1        1 MOL      0.032473
     26 H10         0.1940   -5.6160    0.7600 hc        1 MOL      0.104513
     27 H11         0.4630   -4.8470   -0.9870 hc        1 MOL      0.104513
     28 H12         1.0210   -6.4490   -0.5280 hc        1 MOL      0.104513
     29 N3          3.2580   -3.6050   -1.4160 n         1 MOL     -0.043290
     30 C10         4.4750   -3.1600   -2.0750 c3        1 MOL     -0.194074
     31 C11         5.7240   -2.9810   -1.0800 c         1 MOL      0.392637
     32 O6          6.8370   -3.4080   -1.3860 o         1 MOL     -0.521507
     33 C12         4.3120   -1.9780   -3.0260 c3        1 MOL      0.029339
     34 C13         3.0780   -1.9540   -3.8990 c         1 MOL      0.617318
     35 O7          3.0900   -2.5690   -4.9500 o         1 MOL     -0.686931
     36 O8          2.1510   -1.2400   -3.5280 o         1 MOL     -0.686931
     37 H13         2.5890   -2.9490   -1.0340 hn        1 MOL      0.009363
     38 H14         4.7650   -3.9480   -2.7700 h1        1 MOL      0.114292
     39 H15         5.1690   -1.8290   -3.6850 hc        1 MOL     -0.016907
     40 H16         4.2400   -1.1140   -2.3680 hc        1 MOL     -0.016907
     41 N4          5.4650   -2.4180    0.1010 n         1 MOL      0.126815
     42 C14         6.5270   -2.3080    1.1510 c3        1 MOL     -0.209454
     43 C15         7.4760   -1.2100    0.8980 c         1 MOL      0.407267
     44 O9          8.6290   -1.2380    1.4020 o         1 MOL     -0.563145
     45 H17         4.5250   -2.1820    0.3710 hn        1 MOL     -0.146594
     46 H18         7.0910   -3.2320    1.2330 h1        1 MOL      0.131469
     47 H19         6.1090   -2.2610    2.1580 h1        1 MOL      0.131469
     48 N5          7.0580   -0.1570    0.1570 n         1 MOL      0.016559
     49 C16         7.9430    0.9950   -0.2690 c3        1 MOL     -0.143454
     50 C17         7.6320    2.2950    0.5930 c         1 MOL      0.419111
     51 O10         8.4870    3.1900    0.6950 o         1 MOL     -0.530554
     52 C18         7.7420    1.2480   -1.7940 c3        1 MOL     -0.161399
     53 C19         8.3490    0.1890   -2.5550 c         1 MOL      0.681959
     54 N6          7.6450   -0.3960   -3.4100 n         1 MOL     -0.817195
     55 O11         9.5090   -0.1330   -2.4010 o         1 MOL     -0.589314
     56 H20         6.0670   -0.0280    0.0660 hn        1 MOL     -0.008790
     57 H21         8.9710    0.7090   -0.0730 h1        1 MOL      0.142002
     58 H22         8.2420    2.1730   -2.0880 hc        1 MOL      0.060874
     59 H23         6.6860    1.4320   -1.9810 hc        1 MOL      0.060874
     60 H24         6.7620   -0.0320   -3.7260 hn        1 MOL      0.378574
     61 H25         8.0480   -1.2240   -3.8160 hn        1 MOL      0.378574
     62 N7          6.5140    2.3220    1.3100 n         1 MOL     -0.148718
     63 C20         6.1390    3.4000    2.2500 c3        1 MOL      0.182096
     64 C21         4.9060    4.1640    1.8710 c         1 MOL      0.542469
     65 O12         4.8480    5.3750    1.9850 o         1 MOL     -0.596049
     66 H26         6.0460    1.4450    1.4850 hn        1 MOL      0.084805
     67 H27         6.8910    4.1900    2.2550 h1        1 MOL     -0.007740
     68 H28         6.0850    3.0540    3.2860 h1        1 MOL     -0.007740
     69 N8          3.9310    3.5380    1.2100 n         1 MOL     -0.347178
     70 C22         2.7670    4.2190    0.5430 c3        1 MOL      0.001162
     71 C23         1.4750    3.3700    0.5170 c         1 MOL      0.564527
     72 O13         1.5860    2.2060    0.1910 o         1 MOL     -0.411539
     73 C24         3.1890    4.6090   -0.9050 c3        1 MOL      0.323083
     74 C25         3.8360    6.0140   -0.9160 c3        1 MOL     -0.494744
     75 O14         4.0800    3.7420   -1.6160 oh        1 MOL     -0.589677
     76 H29         4.0060    2.5350    1.1100 hn        1 MOL      0.078697
     77 H30         2.4860    5.1520    1.0310 h1        1 MOL      0.074710
     78 H31         2.2500    4.6890   -1.4440 h1        1 MOL     -0.008259
     79 H32         3.9020    3.8720   -2.5470 ho        1 MOL      0.409112
     80 H33         4.8370    6.1070   -0.4850 hc        1 MOL      0.134933
     81 H34         3.9510    6.3270   -1.9450 hc        1 MOL      0.134933
     82 H35         3.1720    6.7720   -0.5050 hc        1 MOL      0.134933
     83 N9          0.3080    3.9560    0.8660 n         1 MOL     -0.625615
     84 C26        -1.0020    3.2400    0.9090 c3        1 MOL      0.177742
     85 C27        -1.8650    3.2500   -0.3880 c         1 MOL      0.499532
     86 O15        -2.0350    4.3590   -0.9280 o         1 MOL     -0.594652
     87 C28        -1.6670    3.5620    2.2540 c3        1 MOL      0.091075
     88 C29        -1.1830    2.5180    3.2800 c3        1 MOL      0.188879
     89 C30        -3.1810    3.5330    2.1980 c3        1 MOL     -0.202097
     90 C31        -1.7640    2.8240    4.6450 c3        1 MOL     -0.227263
     91 H36         0.2510    4.9530    0.9820 hn        1 MOL      0.321818
     92 H37        -0.7640    2.1720    0.9680 h1        1 MOL     -0.049984
     93 H38        -1.2570    4.5120    2.5820 hc        1 MOL     -0.006170
     94 H39        -0.0880    2.5640    3.2560 hc        1 MOL     -0.029156
     95 H40        -1.5150    1.5320    2.9660 hc        1 MOL     -0.029156
     96 H41        -3.5570    3.9330    3.1400 hc        1 MOL      0.028953
     97 H42        -3.5110    4.1600    1.3770 hc        1 MOL      0.028953
     98 H43        -3.5440    2.5230    2.0220 hc        1 MOL      0.028953
     99 H44        -2.7320    2.3280    4.6720 hc        1 MOL      0.040710
    100 H45        -1.0840    2.3460    5.3430 hc        1 MOL      0.040710
    101 H46        -1.7950    3.8930    4.8500 hc        1 MOL      0.040710
    102 N10        -2.4490    2.1460   -0.7080 n         1 MOL     -0.105565
    103 C32        -3.5510    1.8970   -1.7180 c3        1 MOL      0.030597
    104 C33        -4.9230    1.5890   -1.0600 c         1 MOL      0.287128
    105 O16        -4.9420    1.3820    0.1790 o         1 MOL     -0.288473
    106 C34        -3.2510    0.7240   -2.6690 c3        1 MOL     -0.044972
    107 C35        -1.8320    0.7040   -3.2720 c         1 MOL      0.640235
    108 O17        -1.0060   -0.0810   -2.6840 o         1 MOL     -0.668815
    109 O18        -1.5390    1.3270   -4.3130 o         1 MOL     -0.668815
    110 H47        -2.1930    1.2900   -0.2280 hn        1 MOL      0.070315
    111 H48        -3.5220    2.7410   -2.4180 h1        1 MOL      0.039526
    112 H49        -3.9410    0.7740   -3.5140 hc        1 MOL      0.022746
    113 H50        -3.4500   -0.2160   -2.1480 hc        1 MOL      0.022746
    114 N11        -5.9860    1.5690   -1.8430 n         1 MOL     -0.470090
    115 C36        -7.3220    1.3230   -1.2440 c3        1 MOL      0.302285
    116 C37        -7.3870    0.0010   -0.4540 c         1 MOL      0.371807
    117 O19        -7.8670    0.0460    0.7290 o         1 MOL     -0.501905
    118 C38        -8.2710    1.4180   -2.3900 c3        1 MOL     -0.215514
    119 C39        -9.6670    1.0580   -1.8460 ca        1 MOL      0.181291
    120 C40       -10.3130    1.9880   -0.9520 ca        1 MOL     -0.267017
    121 C41       -10.3140   -0.1370   -2.2660 ca        1 MOL     -0.267017
    122 C42       -11.6050    1.6150   -0.3590 ca        1 MOL     -0.035105
    123 C43       -11.5380   -0.5150   -1.6990 ca        1 MOL     -0.035105
    124 C44       -12.1550    0.3740   -0.7410 ca        1 MOL     -0.204976
    125 H51        -5.9490    1.7820   -2.8300 hn        1 MOL      0.303667
    126 H52        -7.4230    2.1140   -0.4990 h1        1 MOL      0.035751
    127 H53        -7.9450    0.6710   -3.1090 hc        1 MOL      0.069274
    128 H54        -8.3560    2.4020   -2.8660 hc        1 MOL      0.069274
    129 H55        -9.8840    2.9500   -0.7120 ha        1 MOL      0.147108
    130 H56        -9.7940   -0.7310   -3.0090 ha        1 MOL      0.147108
    131 H57       -12.0440    2.2710    0.3810 ha        1 MOL      0.109947
    132 H58       -12.0770   -1.4270   -1.9300 ha        1 MOL      0.109947
    133 H59       -13.0270    0.0760   -0.1830 ha        1 MOL      0.123452
    134 N12        -7.0250   -1.2190   -0.9650 n         1 MOL     -0.005122
    135 C45        -7.0290   -2.4870   -0.1780 c3        1 MOL     -0.217053
    136 C46        -6.0260   -2.6400    0.9220 c         1 MOL      0.405448
    137 O20        -6.0990   -3.4790    1.8190 o         1 MOL     -0.524103
    138 C47        -6.9750   -3.6240   -1.1610 c3        1 MOL      0.072050
    139 C48        -6.3090   -2.9960   -2.4440 c3        1 MOL     -0.049297
    140 C49        -6.7780   -1.5450   -2.3560 c3        1 MOL     -0.000535
    141 H60        -8.0170   -2.6900    0.2560 h1        1 MOL      0.122616
    142 H61        -6.5700   -4.5800   -0.8500 hc        1 MOL      0.020393
    143 H62        -8.0280   -3.8030   -1.3960 hc        1 MOL      0.020393
    144 H63        -5.2350   -3.0150   -2.2490 hc        1 MOL      0.037583
    145 H64        -6.6210   -3.6010   -3.2900 hc        1 MOL      0.037583
    146 H65        -5.9540   -0.9510   -2.7400 h1        1 MOL      0.000800
    147 H66        -7.6750   -1.3830   -2.9470 h1        1 MOL      0.000800
    148 N13        -5.0790   -1.7360    1.0200 n         1 MOL     -0.136833
    149 C50        -4.1440   -1.6700    2.0690 c3        1 MOL     -0.130968
    150 C51        -4.6160   -0.7120    3.1780 c         1 MOL      0.424292
    151 O21        -4.2590   -0.8570    4.3730 o         1 MOL     -0.572989
    152 C52        -2.8350   -1.0980    1.6060 c3        1 MOL      0.018287
    153 C53        -2.1990   -1.8870    0.4750 c3        1 MOL      0.102357
    154 C54        -0.7880   -1.3240    0.0530 c         1 MOL      0.509929
    155 O22        -0.6050   -0.1070    0.2290 o         1 MOL     -0.679200
    156 O23         0.0540   -2.0700   -0.5220 o         1 MOL     -0.679200
    157 H67        -5.0420   -1.0110    0.3150 hn        1 MOL      0.207139
    158 H68        -4.0330   -2.6480    2.5310 h1        1 MOL      0.131908
    159 H69        -2.1190   -1.1560    2.4320 hc        1 MOL      0.050533
    160 H70        -2.9390   -0.0430    1.3700 hc        1 MOL      0.050533
    161 H71        -2.9210   -1.8360   -0.3520 hc        1 MOL     -0.014209
    162 H72        -2.1360   -2.9400    0.7640 hc        1 MOL     -0.014209
    163 N14        -5.4200    0.3080    2.8780 n         1 MOL      0.048356
    164 C55        -6.2920    1.0640    3.7710 c3        1 MOL     -0.178568
    165 H73        -7.2430    1.2560    3.2730 h1        1 MOL      0.074564
    166 H74        -6.4690    0.4880    4.6790 h1        1 MOL      0.074564
    167 H75        -5.8190    2.0110    4.0260 h1        1 MOL      0.074564
    168 H76        -5.4890    0.4150    1.8710 hn        1 MOL     -0.061827
    169 Ca1         1.3780    0.0000   -1.5500 Ca        1 MOL      1.627451
    170 O24         0.9650    2.1150   -3.1940 oh        1 MOL     -0.939044
    171 H77         1.5740    2.7280   -3.6040 ho        1 MOL      0.428689
    172 H78         0.2560    2.0310   -3.8370 ho        1 MOL      0.428689
    173 O25         3.9220    1.1940   -1.6820 oh        1 MOL     -0.939044
    174 H79         3.9070    2.1470   -1.6260 ho        1 MOL      0.428689
    175 H80         4.0980    0.9020   -0.7830 ho        1 MOL      0.428689
@<TRIPOS>BOND
     1    1    2 1   
     2    1    4 1   
     3    1    5 1   
     4    1    6 1   
     5    2    3 2   
     6    2    7 1   
     7    7    8 1   
     8    7   15 1   
     9    8    9 1   
    10    8   11 1   
    11    8   16 1   
    12    9   10 2   
    13    9   19 1   
    14   11   12 1   
    15   11   17 1   
    16   11   18 1   
    17   12   13 1   
    18   12   14 1   
    19   19   20 1   
    20   19   24 1   
    21   20   21 1   
    22   20   23 1   
    23   20   25 1   
    24   21   22 2   
    25   21   29 1   
    26   23   26 1   
    27   23   27 1   
    28   23   28 1   
    29   29   30 1   
    30   29   37 1   
    31   30   31 1   
    32   30   33 1   
    33   30   38 1   
    34   31   32 2   
    35   31   41 1   
    36   33   34 1   
    37   33   39 1   
    38   33   40 1   
    39   34   35 1   
    40   34   36 1   
    41   41   42 1   
    42   41   45 1   
    43   42   43 1   
    44   42   46 1   
    45   42   47 1   
    46   43   44 2   
    47   43   48 1   
    48   48   49 1   
    49   48   56 1   
    50   49   50 1   
    51   49   52 1   
    52   49   57 1   
    53   50   51 2   
    54   50   62 1   
    55   52   53 1   
    56   52   58 1   
    57   52   59 1   
    58   53   54 1   
    59   53   55 2   
    60   54   60 1   
    61   54   61 1   
    62   62   63 1   
    63   62   66 1   
    64   63   64 1   
    65   63   67 1   
    66   63   68 1   
    67   64   65 2   
    68   64   69 1   
    69   69   70 1   
    70   69   76 1   
    71   70   71 1   
    72   70   73 1   
    73   70   77 1   
    74   71   72 2   
    75   71   83 1   
    76   73   74 1   
    77   73   75 1   
    78   73   78 1   
    79   74   80 1   
    80   74   81 1   
    81   74   82 1   
    82   75   79 1   
    83   83   84 1   
    84   83   91 1   
    85   84   85 1   
    86   84   87 1   
    87   84   92 1   
    88   85   86 2   
    89   85  102 1   
    90   87   88 1   
    91   87   89 1   
    92   87   93 1   
    93   88   90 1   
    94   88   94 1   
    95   88   95 1   
    96   89   96 1   
    97   89   97 1   
    98   89   98 1   
    99   90   99 1   
   100   90  100 1   
   101   90  101 1   
   102  102  103 1   
   103  102  110 1   
   104  103  104 1   
   105  103  106 1   
   106  103  111 1   
   107  104  105 2   
   108  104  114 1   
   109  106  107 1   
   110  106  112 1   
   111  106  113 1   
   112  107  108 1   
   113  107  109 1   
   114  114  115 1   
   115  114  125 1   
   116  115  116 1   
   117  115  118 1   
   118  115  126 1   
   119  116  117 2   
   120  116  134 1   
   121  118  119 1   
   122  118  127 1   
   123  118  128 1   
   124  119  120 ar  
   125  119  121 ar  
   126  120  122 ar  
   127  120  129 1   
   128  121  123 ar  
   129  121  130 1   
   130  122  124 ar  
   131  122  131 1   
   132  123  124 ar  
   133  123  132 1   
   134  124  133 1   
   135  134  135 1   
   136  134  140 1   
   137  135  136 1   
   138  135  138 1   
   139  135  141 1   
   140  136  137 2   
   141  136  148 1   
   142  138  139 1   
   143  138  142 1   
   144  138  143 1   
   145  139  140 1   
   146  139  144 1   
   147  139  145 1   
   148  140  146 1   
   149  140  147 1   
   150  148  149 1   
   151  148  157 1   
   152  149  150 1   
   153  149  152 1   
   154  149  158 1   
   155  150  151 2   
   156  150  163 1   
   157  152  153 1   
   158  152  159 1   
   159  152  160 1   
   160  153  154 1   
   161  153  161 1   
   162  153  162 1   
   163  154  155 1   
   164  154  156 1   
   165  163  164 1   
   166  163  168 1   
   167  164  165 1   
   168  164  166 1   
   169  164  167 1   
   170  170  171 1   
   171  170  172 1   
   172  173  174 1   
   173  173  175 1   
@<TRIPOS>SUBSTRUCTURE
     1 MOL         1 TEMP              0 ****  ****    0 ROOT
