@<TRIPOS>MOLECULE
MOL
  189   185     1     0     0
SMALL
resp


@<TRIPOS>ATOM
      1 C1         -0.8710    2.1590    5.9530 c3        1 MOL     -0.319837
      2 C2         -1.0940    1.7220    4.5220 c         1 MOL      0.692000
      3 O1         -0.2290    2.1070    3.7230 o         1 MOL     -0.635276
      4 H1         -1.6420    1.7240    6.5900 hc        1 MOL      0.081445
      5 H2          0.1100    1.8210    6.2880 hc        1 MOL      0.081445
      6 H3         -0.9220    3.2460    6.0140 hc        1 MOL      0.081445
      7 N1         -2.1310    1.0010    4.1690 n         1 MOL     -0.497970
      8 C3         -2.5860    0.9870    2.7740 c3        1 MOL      0.157043
      9 C4         -3.0600    2.4540    2.3800 c         1 MOL      0.324229
     10 O2         -4.2920    2.8180    2.5090 o         1 MOL     -0.469610
     11 C5         -3.7260   -0.0720    2.7420 c3        1 MOL     -0.313479
     12 C6         -4.4570   -0.0640    1.3780 c         1 MOL      0.716495
     13 O3         -5.6320   -0.5090    1.3530 o         1 MOL     -0.609427
     14 O4         -3.9210    0.4950    0.4030 o         1 MOL     -0.609427
     15 H4         -2.7450    0.5710    4.8560 hn        1 MOL      0.319484
     16 H5         -1.8150    0.5640    2.1270 h1        1 MOL     -0.063897
     17 H6         -4.4650    0.2240    3.4890 hc        1 MOL      0.080067
     18 H7         -3.3510   -1.0520    2.9920 hc        1 MOL      0.080067
     19 N2         -2.0790    3.1910    1.8490 n         1 MOL     -0.137970
     20 C7         -2.3110    4.6240    1.6720 c3        1 MOL     -0.078975
     21 C8         -3.2440    5.0930    0.5280 c         1 MOL      0.523753
     22 O5         -3.7310    6.2050    0.4660 o         1 MOL     -0.572624
     23 C9         -0.9930    5.4000    1.7410 c3        1 MOL     -0.215379
     24 C10        -0.2660    5.2270    0.3590 c3        1 MOL      0.245549
     25 C11         1.0540    5.9440    0.4290 c3        1 MOL     -0.059848
     26 C12         1.9710    5.7830   -0.6850 c3        1 MOL      0.113543
     27 N3          3.3410    6.1440   -0.4080 n4        1 MOL     -0.412138
     28 H8         -1.2000    2.7230    1.6760 hn        1 MOL      0.323243
     29 H9         -2.9000    4.8680    2.5600 h1        1 MOL      0.100828
     30 H10        -0.2840    5.0210    2.4760 hc        1 MOL      0.072422
     31 H11        -1.2370    6.4520    1.8770 hc        1 MOL      0.072422
     32 H12        -0.9030    5.6110   -0.4470 hc        1 MOL     -0.036711
     33 H13        -0.0190    4.1730    0.2470 hc        1 MOL     -0.036711
     34 H14         1.5090    5.5880    1.3440 hc        1 MOL      0.011148
     35 H15         0.8380    7.0130    0.5170 hc        1 MOL      0.011148
     36 H16         1.6180    6.4240   -1.4910 hx        1 MOL      0.057154
     37 H17         1.8350    4.7870   -1.1250 hx        1 MOL      0.057154
     38 H18         3.9790    5.9870   -1.1740 hn        1 MOL      0.331737
     39 H19         3.3750    7.0870   -0.0610 hn        1 MOL      0.331737
     40 H20         3.7090    5.6250    0.3740 hn        1 MOL      0.331737
     41 N4         -3.5470    4.1550   -0.3110 n         1 MOL     -0.277969
     42 C13        -4.5580    4.3320   -1.4490 c3        1 MOL      0.207869
     43 C14        -5.8810    3.4890   -1.2860 c         1 MOL      0.387070
     44 O6         -6.8430    3.5690   -2.0690 o         1 MOL     -0.526904
     45 C15        -3.8240    4.2300   -2.8150 c3        1 MOL     -0.344771
     46 C16        -2.8280    3.0230   -2.8330 c         1 MOL      0.841905
     47 O7         -1.8980    3.0180   -3.6880 o         1 MOL     -0.727597
     48 O8         -3.1490    2.1080   -2.0870 o         1 MOL     -0.727597
     49 H21        -3.2160    3.2280   -0.0510 hn        1 MOL      0.019491
     50 H22        -5.0120    5.3200   -1.4650 h1        1 MOL      0.049806
     51 H23        -3.1410    5.0720   -2.8890 hc        1 MOL      0.080272
     52 H24        -4.5750    4.1360   -3.5920 hc        1 MOL      0.080272
     53 N5         -5.8620    2.5770   -0.3340 n         1 MOL     -0.048003
     54 C17        -7.0920    1.9480    0.0880 c3        1 MOL     -0.345194
     55 C18        -7.5600    0.7340   -0.7310 c         1 MOL      0.639275
     56 O9         -8.7080    0.3150   -0.8240 o         1 MOL     -0.582340
     57 H25        -5.0610    2.0850    0.0470 hn        1 MOL      0.062886
     58 H26        -7.8580    2.7290    0.1240 h1        1 MOL      0.139365
     59 H27        -6.8730    1.6070    1.0990 h1        1 MOL      0.139365
     60 N6         -6.5930    0.0960   -1.4180 n         1 MOL     -0.328011
     61 C19        -6.8740   -1.1120   -2.1640 c3        1 MOL     -0.013272
     62 C20        -7.0670   -2.3970   -1.2950 c         1 MOL      0.422032
     63 O10        -7.4580   -3.3790   -1.8600 o         1 MOL     -0.538916
     64 C21        -5.7980   -1.2910   -3.3260 c3        1 MOL     -0.273135
     65 C22        -4.4030   -1.2790   -2.8450 c         1 MOL      0.770843
     66 O11        -4.1030   -1.7020   -1.7100 o         1 MOL     -0.681399
     67 O12        -3.5010   -0.8000   -3.4830 o         1 MOL     -0.681399
     68 H28        -5.6560    0.4300   -1.2720 hn        1 MOL      0.281891
     69 H29        -7.7720   -1.0810   -2.7890 h1        1 MOL      0.123604
     70 H30        -5.8770   -0.5810   -4.1410 hc        1 MOL      0.087288
     71 H31        -5.8280   -2.3010   -3.7480 hc        1 MOL      0.087288
     72 N7         -6.8570   -2.4100    0.0080 n         1 MOL     -0.099945
     73 C23        -6.8550   -3.4910    0.9400 c3        1 MOL     -0.230370
     74 C24        -5.5840   -4.3280    0.9350 c         1 MOL      0.530657
     75 O13        -5.5600   -5.4950    1.1940 o         1 MOL     -0.544123
     76 H32        -6.6590   -1.5200    0.4460 hn        1 MOL      0.196047
     77 H33        -7.6970   -4.1450    0.6960 h1        1 MOL      0.107613
     78 H34        -7.1140   -3.0280    1.8820 h1        1 MOL      0.107613
     79 N8         -4.4120   -3.7120    0.5690 n         1 MOL     -0.094292
     80 C25        -3.0800   -4.3970    0.5020 c3        1 MOL     -0.391235
     81 C26        -1.9270   -3.4980    0.7330 c         1 MOL      0.755468
     82 O14        -2.0350   -2.2350    0.6480 o         1 MOL     -0.516693
     83 C27        -3.0010   -5.0640   -0.9510 c3        1 MOL      0.477914
     84 C28        -4.0580   -6.1270   -1.3420 c3        1 MOL     -0.468301
     85 O15        -2.8450   -4.1200   -2.0370 oh        1 MOL     -0.633249
     86 H35        -4.4670   -2.7230    0.3620 hn        1 MOL      0.004558
     87 H36        -3.0810   -5.1480    1.3000 h1        1 MOL      0.141878
     88 H37        -2.0650   -5.6200   -0.9070 h1        1 MOL     -0.024973
     89 H38        -3.2570   -3.2870   -1.7870 ho        1 MOL      0.403828
     90 H39        -5.0030   -5.5990   -1.4410 hc        1 MOL      0.128535
     91 H40        -3.7830   -6.6080   -2.2790 hc        1 MOL      0.128535
     92 H41        -4.2450   -6.8560   -0.5580 hc        1 MOL      0.128535
     93 N9         -0.7810   -4.0270    1.0970 n         1 MOL     -0.621217
     94 C29         0.4840   -3.2220    1.2750 c3        1 MOL      0.075914
     95 C30         1.5390   -3.5900    0.2740 c         1 MOL      0.603693
     96 O16         1.8530   -4.7400    0.2050 o         1 MOL     -0.578136
     97 C31         0.9950   -3.3010    2.7350 c3        1 MOL      0.071612
     98 C32         0.1830   -2.2910    3.6780 c3        1 MOL      0.014810
     99 C33         2.5400   -2.9050    2.8960 c3        1 MOL     -0.283325
    100 C34         0.1560   -2.4840    5.1940 c3        1 MOL     -0.239063
    101 H42        -0.6900   -5.0350    1.1170 hn        1 MOL      0.329067
    102 H43         0.2600   -2.1680    1.1400 h1        1 MOL     -0.048228
    103 H44         0.8270   -4.2860    3.1720 hc        1 MOL      0.042899
    104 H45        -0.8800   -2.3620    3.4620 hc        1 MOL      0.062934
    105 H46         0.5090   -1.2480    3.5740 hc        1 MOL      0.062934
    106 H47         2.6670   -1.9020    2.4700 hc        1 MOL      0.064554
    107 H48         2.8720   -2.8380    3.9270 hc        1 MOL      0.064554
    108 H49         3.2370   -3.5590    2.3610 hc        1 MOL      0.064554
    109 H50         1.1940   -2.3520    5.5080 hc        1 MOL      0.048183
    110 H51        -0.4620   -1.7790    5.7660 hc        1 MOL      0.048183
    111 H52        -0.0520   -3.5420    5.3350 hc        1 MOL      0.048183
    112 N10         2.1930   -2.6390   -0.3520 n         1 MOL     -0.319796
    113 C35         3.4100   -2.8000   -1.2100 c3        1 MOL      0.005274
    114 C36         4.7270   -2.7680   -0.3790 c         1 MOL      0.456411
    115 O17         4.8160   -2.4200    0.7930 o         1 MOL     -0.463512
    116 C37         3.4830   -1.7770   -2.3660 c3        1 MOL      0.112227
    117 C38         2.2090   -1.5530   -3.1100 c3        1 MOL     -0.245953
    118 O18         3.9740   -0.5390   -1.7930 oh        1 MOL     -0.425718
    119 H53         1.8570   -1.7200   -0.1070 hn        1 MOL      0.302004
    120 H54         3.3680   -3.7800   -1.6870 h1        1 MOL      0.083070
    121 H55         4.2480   -2.1100   -3.0740 h1        1 MOL      0.025605
    122 H56         3.5610    0.1230   -2.3530 ho        1 MOL      0.367762
    123 H57         1.8880   -2.5560   -3.3930 hc        1 MOL      0.089579
    124 H58         1.4780   -1.0590   -2.4690 hc        1 MOL      0.089579
    125 H59         2.4650   -1.0660   -4.0460 hc        1 MOL      0.089579
    126 N11         5.8540   -3.2130   -0.9860 n         1 MOL     -0.367915
    127 C39         7.2500   -3.0290   -0.5280 c3        1 MOL      0.020492
    128 C40         7.6410   -1.5960   -0.3880 c         1 MOL      0.357274
    129 O19         8.6530   -1.3350    0.2350 o         1 MOL     -0.529089
    130 C41         8.2740   -3.5960   -1.5740 c3        1 MOL      0.522990
    131 C42         9.2380   -4.6790   -1.1060 c3        1 MOL     -0.299942
    132 O20         7.6960   -3.9570   -2.7370 oh        1 MOL     -0.687426
    133 H60         5.7260   -3.7130   -1.8520 hn        1 MOL      0.266595
    134 H61         7.4070   -3.5100    0.4290 h1        1 MOL      0.109598
    135 H62         8.9630   -2.8320   -1.9100 h1        1 MOL     -0.032818
    136 H63         8.3670   -3.8890   -3.4160 ho        1 MOL      0.418316
    137 H64         9.9020   -4.2340   -0.3670 hc        1 MOL      0.067823
    138 H65         8.6850   -5.4240   -0.5320 hc        1 MOL      0.067823
    139 H66         9.8640   -4.9510   -1.9550 hc        1 MOL      0.067823
    140 N12         6.9290   -0.6360   -0.9520 n         1 MOL     -0.459360
    141 C43         7.1090    0.7820   -0.5060 c3        1 MOL      0.369378
    142 C44         6.2490    1.2160    0.6040 c         1 MOL      0.259181
    143 O21         6.6060    1.9740    1.4780 o         1 MOL     -0.535849
    144 C45         6.9060    1.7040   -1.6590 c3        1 MOL     -0.114707
    145 C46         7.3300    3.1440   -1.1790 c3        1 MOL      0.002757
    146 C47         7.5270    4.0050   -2.4690 c3        1 MOL      0.008551
    147 C48         8.7180    3.7200   -3.3400 c3        1 MOL     -0.065279
    148 N13        10.1280    3.8480   -2.8460 n4        1 MOL     -0.090432
    149 H67         6.1330   -0.8630   -1.5280 hn        1 MOL      0.189874
    150 H68         8.1310    0.9470   -0.1590 h1        1 MOL      0.039431
    151 H69         5.8870    1.6400   -2.0500 hc        1 MOL      0.016162
    152 H70         7.6350    1.3450   -2.3870 hc        1 MOL      0.016162
    153 H71         8.1880    3.1540   -0.5010 hc        1 MOL      0.016652
    154 H72         6.5510    3.6240   -0.5980 hc        1 MOL      0.016652
    155 H73         7.5130    5.0540   -2.1710 hc        1 MOL      0.024349
    156 H74         6.6250    3.8780   -3.0740 hc        1 MOL      0.024349
    157 H75         8.6440    4.3410   -4.2300 hx        1 MOL      0.085739
    158 H76         8.7100    2.6520   -3.5410 hx        1 MOL      0.085739
    159 H77        10.7420    3.4730   -3.5510 hn        1 MOL      0.216157
    160 H78        10.4710    4.7950   -2.8340 hn        1 MOL      0.216157
    161 H79        10.2750    3.3720   -1.9610 hn        1 MOL      0.216157
    162 N14         5.0250    0.7140    0.6280 n         1 MOL     -0.038191
    163 C49         4.1140    1.0790    1.7660 c3        1 MOL     -0.186024
    164 C50         4.5930    0.5070    3.0830 c         1 MOL      0.558997
    165 O22         4.3710    1.1880    4.1190 o         1 MOL     -0.552962
    166 C51         2.7570    0.5900    1.4630 c3        1 MOL      0.160026
    167 C52         1.9830    1.4940    0.4920 c3        1 MOL     -0.330450
    168 C53         0.6200    0.9090    0.0600 c         1 MOL      0.721962
    169 O23         0.4570   -0.3120   -0.2120 o         1 MOL     -0.682692
    170 O24        -0.3290    1.6980   -0.1220 o         1 MOL     -0.682692
    171 H80         4.7420    0.1310   -0.1510 hn        1 MOL      0.007088
    172 H81         4.0480    2.1600    1.8880 h1        1 MOL      0.101710
    173 H82         2.1560    0.4970    2.3660 hc        1 MOL      0.037985
    174 H83         2.7880   -0.4080    1.0090 hc        1 MOL      0.037985
    175 H84         2.5920    1.5870   -0.4170 hc        1 MOL      0.049884
    176 H85         1.8400    2.5060    0.8630 hc        1 MOL      0.049884
    177 N15         5.3630   -0.6070    3.0680 n         1 MOL     -0.245245
    178 C54         5.9710   -1.3450    4.2580 c3        1 MOL     -0.393056
    179 H86         5.1970   -1.5330    5.0030 h1        1 MOL      0.150409
    180 H87         6.3890   -2.2940    3.9230 h1        1 MOL      0.150409
    181 H88         6.7590   -0.7360    4.7010 h1        1 MOL      0.150409
    182 H89         5.6070   -0.9270    2.1490 hn        1 MOL      0.312330
    183 Ca1        -2.0110   -0.1910   -1.1780 Ca        1 MOL      1.729833
    184 O25        -0.9010   -2.1180   -2.6540 oh        1 MOL     -0.918952
    185 H90        -1.4080   -2.9020   -2.8610 ho        1 MOL      0.413173
    186 H91        -0.6190   -1.7830   -3.5030 ho        1 MOL      0.413173
    187 O26        -0.8190    0.7130   -3.5930 oh        1 MOL     -0.918952
    188 H92        -0.5110    0.5710   -4.4910 ho        1 MOL      0.413173
    189 H93        -1.3240    1.5370   -3.6450 ho        1 MOL      0.413173
@<TRIPOS>BOND
     1    1    2 1   
     2    1    4 1   
     3    1    5 1   
     4    1    6 1   
     5    2    3 2   
     6    2    7 1   
     7    7    8 1   
     8    7   15 1   
     9    8    9 1   
    10    8   11 1   
    11    8   16 1   
    12    9   10 2   
    13    9   19 1   
    14   11   12 1   
    15   11   17 1   
    16   11   18 1   
    17   12   13 1   
    18   12   14 1   
    19   19   20 1   
    20   19   28 1   
    21   20   21 1   
    22   20   23 1   
    23   20   29 1   
    24   21   22 2   
    25   21   41 1   
    26   23   24 1   
    27   23   30 1   
    28   23   31 1   
    29   24   25 1   
    30   24   32 1   
    31   24   33 1   
    32   25   26 1   
    33   25   34 1   
    34   25   35 1   
    35   26   27 1   
    36   26   36 1   
    37   26   37 1   
    38   27   38 1   
    39   27   39 1   
    40   27   40 1   
    41   41   42 1   
    42   41   49 1   
    43   42   43 1   
    44   42   45 1   
    45   42   50 1   
    46   43   44 2   
    47   43   53 1   
    48   45   46 1   
    49   45   51 1   
    50   45   52 1   
    51   46   47 1   
    52   46   48 1   
    53   53   54 1   
    54   53   57 1   
    55   54   55 1   
    56   54   58 1   
    57   54   59 1   
    58   55   56 2   
    59   55   60 1   
    60   60   61 1   
    61   60   68 1   
    62   61   62 1   
    63   61   64 1   
    64   61   69 1   
    65   62   63 2   
    66   62   72 1   
    67   64   65 1   
    68   64   70 1   
    69   64   71 1   
    70   65   66 1   
    71   65   67 1   
    72   72   73 1   
    73   72   76 1   
    74   73   74 1   
    75   73   77 1   
    76   73   78 1   
    77   74   75 2   
    78   74   79 1   
    79   79   80 1   
    80   79   86 1   
    81   80   81 1   
    82   80   83 1   
    83   80   87 1   
    84   81   82 2   
    85   81   93 1   
    86   83   84 1   
    87   83   85 1   
    88   83   88 1   
    89   84   90 1   
    90   84   91 1   
    91   84   92 1   
    92   85   89 1   
    93   93   94 1   
    94   93  101 1   
    95   94   95 1   
    96   94   97 1   
    97   94  102 1   
    98   95   96 2   
    99   95  112 1   
   100   97   98 1   
   101   97   99 1   
   102   97  103 1   
   103   98  100 1   
   104   98  104 1   
   105   98  105 1   
   106   99  106 1   
   107   99  107 1   
   108   99  108 1   
   109  100  109 1   
   110  100  110 1   
   111  100  111 1   
   112  112  113 1   
   113  112  119 1   
   114  113  114 1   
   115  113  116 1   
   116  113  120 1   
   117  114  115 2   
   118  114  126 1   
   119  116  117 1   
   120  116  118 1   
   121  116  121 1   
   122  117  123 1   
   123  117  124 1   
   124  117  125 1   
   125  118  122 1   
   126  126  127 1   
   127  126  133 1   
   128  127  128 1   
   129  127  130 1   
   130  127  134 1   
   131  128  129 2   
   132  128  140 1   
   133  130  131 1   
   134  130  132 1   
   135  130  135 1   
   136  131  137 1   
   137  131  138 1   
   138  131  139 1   
   139  132  136 1   
   140  140  141 1   
   141  140  149 1   
   142  141  142 1   
   143  141  144 1   
   144  141  150 1   
   145  142  143 2   
   146  142  162 1   
   147  144  145 1   
   148  144  151 1   
   149  144  152 1   
   150  145  146 1   
   151  145  153 1   
   152  145  154 1   
   153  146  147 1   
   154  146  155 1   
   155  146  156 1   
   156  147  148 1   
   157  147  157 1   
   158  147  158 1   
   159  148  159 1   
   160  148  160 1   
   161  148  161 1   
   162  162  163 1   
   163  162  171 1   
   164  163  164 1   
   165  163  166 1   
   166  163  172 1   
   167  164  165 2   
   168  164  177 1   
   169  166  167 1   
   170  166  173 1   
   171  166  174 1   
   172  167  168 1   
   173  167  175 1   
   174  167  176 1   
   175  168  169 1   
   176  168  170 1   
   177  177  178 1   
   178  177  182 1   
   179  178  179 1   
   180  178  180 1   
   181  178  181 1   
   182  184  185 1   
   183  184  186 1   
   184  187  188 1   
   185  187  189 1   
@<TRIPOS>SUBSTRUCTURE
     1 MOL         1 TEMP              0 ****  ****    0 ROOT
