@<TRIPOS>MOLECULE
MOL
  189   185     1     0     0
SMALL
resp


@<TRIPOS>ATOM
      1 C1          0.6600    2.2210    5.3360 c3        1 MOL     -0.145083
      2 C2          0.0270    2.2740    3.9630 c         1 MOL      0.544899
      3 O1          0.6620    2.6870    3.0050 o         1 MOL     -0.617369
      4 H1         -0.0010    1.6880    6.0200 hc        1 MOL      0.039603
      5 H2          1.6160    1.7020    5.2760 hc        1 MOL      0.039603
      6 H3          0.8190    3.2360    5.7030 hc        1 MOL      0.039603
      7 N1         -1.2220    1.8280    3.7800 n         1 MOL     -0.462572
      8 C3         -1.9090    1.6460    2.5100 c3        1 MOL      0.079547
      9 C4         -2.4580    3.0020    1.9830 c         1 MOL      0.344152
     10 O2         -3.5340    3.4660    2.3680 o         1 MOL     -0.497483
     11 C5         -3.0920    0.6490    2.7030 c3        1 MOL     -0.181424
     12 C6         -3.8300    0.4330    1.4110 c         1 MOL      0.711670
     13 O3         -3.3090    0.8440    0.3320 o         1 MOL     -0.652683
     14 O4         -4.8960   -0.2630    1.4250 o         1 MOL     -0.652683
     15 H4         -1.6340    1.5130    4.6490 hn        1 MOL      0.303870
     16 H5         -1.2430    1.3250    1.7150 h1        1 MOL      0.070253
     17 H6         -3.7470    1.0200    3.4970 hc        1 MOL      0.051358
     18 H7         -2.7020   -0.3140    3.0350 hc        1 MOL      0.051358
     19 N2         -1.7660    3.6870    0.9850 n         1 MOL     -0.034136
     20 C7         -2.0290    5.0980    0.7670 c3        1 MOL     -0.163489
     21 C8         -2.9200    5.4280   -0.4810 c         1 MOL      0.406058
     22 O5         -3.5450    6.5180   -0.5860 o         1 MOL     -0.556555
     23 C9         -0.6330    5.7780    0.5720 c3        1 MOL     -0.095984
     24 C10         0.1400    5.7820    1.8610 c3        1 MOL      0.293204
     25 C11         0.8950    7.1270    1.9150 c3        1 MOL     -0.002624
     26 C12         1.9880    7.3110    3.0180 c3        1 MOL     -0.117068
     27 N3          1.5580    6.9050    4.3590 n4        1 MOL     -0.420938
     28 H8         -0.9280    3.2560    0.6050 hn        1 MOL      0.171367
     29 H9         -2.5590    5.5390    1.6110 h1        1 MOL      0.115685
     30 H10        -0.7640    6.8280    0.3300 hc        1 MOL      0.047261
     31 H11        -0.0520    5.3710   -0.2490 hc        1 MOL      0.047261
     32 H12         0.9340    5.0410    1.9190 hc        1 MOL     -0.055021
     33 H13        -0.5970    5.7380    2.6570 hc        1 MOL     -0.055021
     34 H14         0.1140    7.8850    2.0320 hc        1 MOL      0.007659
     35 H15         1.3390    7.2190    0.9190 hc        1 MOL      0.007659
     36 H16         2.1670    8.3870    3.0030 hx        1 MOL      0.122271
     37 H17         2.8780    6.7310    2.7920 hx        1 MOL      0.122271
     38 H18         2.0610    7.4460    5.0430 hn        1 MOL      0.353045
     39 H19         0.6150    7.2300    4.5090 hn        1 MOL      0.353045
     40 H20         1.7790    5.9240    4.4840 hn        1 MOL      0.353045
     41 N4         -2.9970    4.4180   -1.3150 n         1 MOL     -0.231968
     42 C13        -4.0700    4.3630   -2.2760 c3        1 MOL      0.058624
     43 C14        -5.3060    3.5120   -1.8330 c         1 MOL      0.359145
     44 O6         -6.3010    3.5820   -2.5690 o         1 MOL     -0.506681
     45 C15        -3.4920    3.9050   -3.6150 c3        1 MOL     -0.457847
     46 C16        -2.5540    2.6720   -3.5080 c         1 MOL      0.855267
     47 O7         -2.8950    1.7020   -2.7920 o         1 MOL     -0.702481
     48 O8         -1.5500    2.5830   -4.2000 o         1 MOL     -0.702481
     49 H21        -2.4080    3.6220   -1.1060 hn        1 MOL      0.183628
     50 H22        -4.4290    5.3630   -2.4890 h1        1 MOL      0.137638
     51 H23        -2.9880    4.7400   -4.1040 hc        1 MOL      0.119965
     52 H24        -4.3090    3.4800   -4.1970 hc        1 MOL      0.119965
     53 N5         -5.3950    2.9330   -0.6170 n         1 MOL     -0.116595
     54 C17        -6.6380    2.3790   -0.0760 c3        1 MOL     -0.259560
     55 C18        -7.1560    1.1280   -0.8530 c         1 MOL      0.646930
     56 O9         -8.3330    1.1000   -1.0810 o         1 MOL     -0.599968
     57 H25        -4.5210    2.8460   -0.1040 hn        1 MOL      0.145592
     58 H26        -7.3740    3.1780   -0.0450 h1        1 MOL      0.126246
     59 H27        -6.5310    1.9890    0.9350 h1        1 MOL      0.126246
     60 N6         -6.3740    0.0630   -1.0260 n         1 MOL     -0.234179
     61 C19        -6.8550   -1.0890   -1.7740 c3        1 MOL      0.038247
     62 C20        -7.2400   -2.2840   -0.9220 c         1 MOL      0.410545
     63 O10        -7.8010   -3.2490   -1.3860 o         1 MOL     -0.542119
     64 C21        -6.0130   -1.3890   -3.0620 c3        1 MOL     -0.156454
     65 C22        -4.5430   -1.5640   -2.7420 c         1 MOL      0.716839
     66 O11        -3.5790   -1.2450   -3.5280 o         1 MOL     -0.717757
     67 O12        -4.1880   -2.0450   -1.6490 o         1 MOL     -0.717757
     68 H28        -5.4560    0.0070   -0.6020 hn        1 MOL      0.015047
     69 H29        -7.8310   -0.8700   -2.1890 h1        1 MOL      0.102330
     70 H30        -6.1050   -0.5480   -3.7580 hc        1 MOL      0.059611
     71 H31        -6.3440   -2.2870   -3.5880 hc        1 MOL      0.059611
     72 N7         -6.8920   -2.1870    0.3490 n         1 MOL     -0.242319
     73 C23        -7.0290   -3.2660    1.3090 c3        1 MOL     -0.150774
     74 C24        -5.8050   -4.0680    1.3800 c         1 MOL      0.563295
     75 O13        -5.8630   -5.0540    2.0530 o         1 MOL     -0.573544
     76 H32        -6.5150   -1.2870    0.6410 hn        1 MOL      0.229567
     77 H33        -7.8740   -3.8930    1.0540 h1        1 MOL      0.101809
     78 H34        -7.2610   -2.8460    2.2850 h1        1 MOL      0.101809
     79 N8         -4.7050   -3.6680    0.6760 n         1 MOL     -0.208849
     80 C25        -3.4620   -4.4330    0.6190 c3        1 MOL     -0.269178
     81 C26        -2.2000   -3.5620    0.8380 c         1 MOL      0.696625
     82 O14        -2.1850   -2.4120    0.3290 o         1 MOL     -0.624091
     83 C27        -3.3080   -5.3460   -0.5600 c3        1 MOL      0.548669
     84 C28        -4.4690   -6.2790   -0.9460 c3        1 MOL     -0.413802
     85 O15        -3.2190   -4.5060   -1.7110 oh        1 MOL     -0.738856
     86 H35        -4.8040   -2.8760    0.0560 hn        1 MOL      0.192953
     87 H36        -3.4360   -5.0230    1.5390 h1        1 MOL      0.067717
     88 H37        -2.4450   -6.0160   -0.4400 h1        1 MOL     -0.020469
     89 H38        -3.6910   -3.6780   -1.5800 ho        1 MOL      0.496056
     90 H39        -4.6150   -7.0040   -0.1470 hc        1 MOL      0.104952
     91 H40        -5.3860   -5.7490   -1.2180 hc        1 MOL      0.104952
     92 H41        -4.1600   -6.8280   -1.8330 hc        1 MOL      0.104952
     93 N9         -1.1430   -4.0930    1.5120 n         1 MOL     -0.648896
     94 C29         0.1000   -3.3410    1.7590 c3        1 MOL      0.030294
     95 C30         1.1470   -3.8160    0.8060 c         1 MOL      0.605094
     96 O16         1.4100   -5.0280    0.7400 o         1 MOL     -0.567548
     97 C31         0.4920   -3.5570    3.2040 c3        1 MOL      0.109039
     98 C32        -0.4210   -2.6260    4.0590 c3        1 MOL      0.351547
     99 C33         1.9280   -3.0830    3.5700 c3        1 MOL     -0.384727
    100 C34        -0.4280   -2.8310    5.5690 c3        1 MOL     -0.139853
    101 H42        -1.1650   -5.0330    1.8760 hn        1 MOL      0.336823
    102 H43         0.0150   -2.2580    1.6690 h1        1 MOL      0.043146
    103 H44         0.4010   -4.6010    3.5040 hc        1 MOL      0.014867
    104 H45        -1.4450   -2.9320    3.8760 hc        1 MOL     -0.056444
    105 H46        -0.2880   -1.5580    3.8710 hc        1 MOL     -0.056444
    106 H47         2.6030   -3.6340    2.9200 hc        1 MOL      0.074529
    107 H48         1.9910   -2.0050    3.4200 hc        1 MOL      0.074529
    108 H49         2.1770   -3.3750    4.5830 hc        1 MOL      0.074529
    109 H50         0.5110   -2.4750    5.9860 hc        1 MOL      0.007427
    110 H51        -1.2490   -2.1440    5.7990 hc        1 MOL      0.007427
    111 H52        -0.7090   -3.8300    5.9040 hc        1 MOL      0.007427
    112 N10         1.8990   -2.9040    0.1140 n         1 MOL     -0.278849
    113 C35         3.0890   -3.2920   -0.7050 c3        1 MOL     -0.193638
    114 C36         4.4540   -3.1990    0.1150 c         1 MOL      0.514403
    115 O17         4.4730   -2.6440    1.1670 o         1 MOL     -0.440794
    116 C37         3.3150   -2.3860   -1.9300 c3        1 MOL      0.306702
    117 C38         2.2920   -2.4730   -3.0760 c3        1 MOL     -0.662005
    118 O18         3.4340   -1.0520   -1.5840 oh        1 MOL     -0.463093
    119 H53         1.6710   -1.9220    0.1630 hn        1 MOL      0.356938
    120 H54         2.9750   -4.3140   -1.0620 h1        1 MOL      0.110627
    121 H55         4.2790   -2.6570   -2.3620 h1        1 MOL      0.049101
    122 H56         2.5930   -0.9010   -1.1520 ho        1 MOL      0.330530
    123 H57         1.8080   -3.4450   -3.0010 hc        1 MOL      0.183159
    124 H58         1.6020   -1.6280   -3.1080 hc        1 MOL      0.183159
    125 H59         2.7800   -2.2850   -4.0360 hc        1 MOL      0.183159
    126 N11         5.4920   -3.7510   -0.4320 n         1 MOL     -0.396180
    127 C39         6.8960   -3.3740   -0.0210 c3        1 MOL     -0.045859
    128 C40         7.3370   -1.8800   -0.0410 c         1 MOL      0.344866
    129 O19         8.0820   -1.4330    0.7940 o         1 MOL     -0.516283
    130 C41         8.0040   -4.1850   -0.6820 c3        1 MOL      0.177919
    131 C42         8.0860   -5.7090   -0.4930 c3        1 MOL     -0.381491
    132 O20         7.7380   -4.0700   -2.0770 oh        1 MOL     -0.636372
    133 H60         5.3750   -4.1760   -1.3350 hn        1 MOL      0.285205
    134 H61         6.9440   -3.7220    1.0130 h1        1 MOL      0.134560
    135 H62         8.9810   -3.7050   -0.5420 h1        1 MOL      0.082759
    136 H63         8.3270   -4.7330   -2.4440 ho        1 MOL      0.408849
    137 H64         8.3430   -5.9230    0.5420 hc        1 MOL      0.116723
    138 H65         7.1700   -6.2010   -0.8210 hc        1 MOL      0.116723
    139 H66         8.9130   -6.0570   -1.1030 hc        1 MOL      0.116723
    140 N12         6.6340   -1.1400   -0.8770 n         1 MOL     -0.014369
    141 C43         6.9630    0.3570   -1.0400 c3        1 MOL     -0.019272
    142 C44         6.1520    1.2200   -0.1120 c         1 MOL      0.275227
    143 O21         6.6560    2.2020    0.4360 o         1 MOL     -0.531531
    144 C45         6.9620    0.7420   -2.5310 c3        1 MOL     -0.086035
    145 C46         7.6660    2.1040   -2.6630 c3        1 MOL     -0.035223
    146 C47         7.8650    2.6480   -4.1210 c3        1 MOL      0.001408
    147 C48         8.4400    4.0640   -4.1910 c3        1 MOL      0.057236
    148 N13         8.9450    4.4440   -5.5090 n4        1 MOL     -0.357162
    149 H67         6.0980   -1.6630   -1.5570 hn        1 MOL      0.118513
    150 H68         8.0160    0.4250   -0.7470 h1        1 MOL      0.116958
    151 H69         5.9480    0.8630   -2.8940 hc        1 MOL      0.047034
    152 H70         7.5500   -0.0580   -2.9910 hc        1 MOL      0.047034
    153 H71         8.6590    1.9860   -2.2430 hc        1 MOL      0.037769
    154 H72         7.0630    2.9060   -2.2370 hc        1 MOL      0.037769
    155 H73         6.9110    2.5450   -4.6390 hc        1 MOL      0.024057
    156 H74         8.5870    2.0530   -4.6960 hc        1 MOL      0.024057
    157 H75         9.2070    4.2820   -3.4520 hx        1 MOL      0.083424
    158 H76         7.7520    4.8670   -3.8900 hx        1 MOL      0.083424
    159 H77         9.2730    5.4030   -5.4830 hn        1 MOL      0.301531
    160 H78         9.7060    3.8260   -5.7370 hn        1 MOL      0.301531
    161 H79         8.3000    4.3030   -6.2700 hn        1 MOL      0.301531
    162 N14         4.9220    0.7780    0.1840 n         1 MOL      0.062180
    163 C49         4.1090    1.3630    1.2830 c3        1 MOL     -0.116995
    164 C50         4.6860    1.0970    2.6780 c         1 MOL      0.454275
    165 O22         4.7010    1.9550    3.5450 o         1 MOL     -0.533342
    166 C51         2.7290    0.6720    1.1190 c3        1 MOL      0.176032
    167 C52         2.0150    1.3850    0.0590 c3        1 MOL     -0.125037
    168 C53         0.6360    0.7700   -0.1950 c         1 MOL      0.887795
    169 O23         0.4810   -0.4270   -0.3650 o         1 MOL     -0.839445
    170 O24        -0.3570    1.4960   -0.6110 o         1 MOL     -0.839445
    171 H80         4.5570    0.0600   -0.4230 hn        1 MOL      0.019686
    172 H81         4.0240    2.4460    1.1940 h1        1 MOL      0.100890
    173 H82         2.1820    0.6750    2.0650 hc        1 MOL     -0.048520
    174 H83         2.9190   -0.3620    0.8500 hc        1 MOL     -0.048520
    175 H84         2.5810    1.3390   -0.8660 hc        1 MOL      0.013537
    176 H85         1.9770    2.4330    0.3560 hc        1 MOL      0.013537
    177 N15         5.3440   -0.1100    2.8680 n         1 MOL     -0.100974
    178 C54         6.0700   -0.4460    4.1160 c3        1 MOL     -0.321076
    179 H86         5.3980   -0.9670    4.7970 h1        1 MOL      0.120999
    180 H87         6.9190   -1.0880    3.8810 h1        1 MOL      0.120999
    181 H88         6.4250    0.4700    4.5880 h1        1 MOL      0.120999
    182 H89         5.3070   -0.8070    2.1530 hn        1 MOL      0.144107
    183 Ca1        -2.0070   -0.4090   -1.4830 Ca        1 MOL      1.774932
    184 O25        -0.3430    0.0100   -3.7540 oh        1 MOL     -0.838932
    185 H90         0.4120    0.5760   -3.6210 ho        1 MOL      0.395829
    186 H91        -1.0180    0.5960   -4.0930 ho        1 MOL      0.395829
    187 O26        -1.0140   -2.9740   -2.2650 oh        1 MOL     -0.838932
    188 H92        -0.6840   -3.2000   -3.1400 ho        1 MOL      0.395829
    189 H93        -1.7550   -3.5570   -2.1280 ho        1 MOL      0.395829
@<TRIPOS>BOND
     1    1    2 1   
     2    1    4 1   
     3    1    5 1   
     4    1    6 1   
     5    2    3 2   
     6    2    7 1   
     7    7    8 1   
     8    7   15 1   
     9    8    9 1   
    10    8   11 1   
    11    8   16 1   
    12    9   10 2   
    13    9   19 1   
    14   11   12 1   
    15   11   17 1   
    16   11   18 1   
    17   12   13 1   
    18   12   14 1   
    19   19   20 1   
    20   19   28 1   
    21   20   21 1   
    22   20   23 1   
    23   20   29 1   
    24   21   22 2   
    25   21   41 1   
    26   23   24 1   
    27   23   30 1   
    28   23   31 1   
    29   24   25 1   
    30   24   32 1   
    31   24   33 1   
    32   25   26 1   
    33   25   34 1   
    34   25   35 1   
    35   26   27 1   
    36   26   36 1   
    37   26   37 1   
    38   27   38 1   
    39   27   39 1   
    40   27   40 1   
    41   41   42 1   
    42   41   49 1   
    43   42   43 1   
    44   42   45 1   
    45   42   50 1   
    46   43   44 2   
    47   43   53 1   
    48   45   46 1   
    49   45   51 1   
    50   45   52 1   
    51   46   47 1   
    52   46   48 1   
    53   53   54 1   
    54   53   57 1   
    55   54   55 1   
    56   54   58 1   
    57   54   59 1   
    58   55   56 2   
    59   55   60 1   
    60   60   61 1   
    61   60   68 1   
    62   61   62 1   
    63   61   64 1   
    64   61   69 1   
    65   62   63 2   
    66   62   72 1   
    67   64   65 1   
    68   64   70 1   
    69   64   71 1   
    70   65   66 1   
    71   65   67 1   
    72   72   73 1   
    73   72   76 1   
    74   73   74 1   
    75   73   77 1   
    76   73   78 1   
    77   74   75 2   
    78   74   79 1   
    79   79   80 1   
    80   79   86 1   
    81   80   81 1   
    82   80   83 1   
    83   80   87 1   
    84   81   82 2   
    85   81   93 1   
    86   83   84 1   
    87   83   85 1   
    88   83   88 1   
    89   84   90 1   
    90   84   91 1   
    91   84   92 1   
    92   85   89 1   
    93   93   94 1   
    94   93  101 1   
    95   94   95 1   
    96   94   97 1   
    97   94  102 1   
    98   95   96 2   
    99   95  112 1   
   100   97   98 1   
   101   97   99 1   
   102   97  103 1   
   103   98  100 1   
   104   98  104 1   
   105   98  105 1   
   106   99  106 1   
   107   99  107 1   
   108   99  108 1   
   109  100  109 1   
   110  100  110 1   
   111  100  111 1   
   112  112  113 1   
   113  112  119 1   
   114  113  114 1   
   115  113  116 1   
   116  113  120 1   
   117  114  115 2   
   118  114  126 1   
   119  116  117 1   
   120  116  118 1   
   121  116  121 1   
   122  117  123 1   
   123  117  124 1   
   124  117  125 1   
   125  118  122 1   
   126  126  127 1   
   127  126  133 1   
   128  127  128 1   
   129  127  130 1   
   130  127  134 1   
   131  128  129 2   
   132  128  140 1   
   133  130  131 1   
   134  130  132 1   
   135  130  135 1   
   136  131  137 1   
   137  131  138 1   
   138  131  139 1   
   139  132  136 1   
   140  140  141 1   
   141  140  149 1   
   142  141  142 1   
   143  141  144 1   
   144  141  150 1   
   145  142  143 2   
   146  142  162 1   
   147  144  145 1   
   148  144  151 1   
   149  144  152 1   
   150  145  146 1   
   151  145  153 1   
   152  145  154 1   
   153  146  147 1   
   154  146  155 1   
   155  146  156 1   
   156  147  148 1   
   157  147  157 1   
   158  147  158 1   
   159  148  159 1   
   160  148  160 1   
   161  148  161 1   
   162  162  163 1   
   163  162  171 1   
   164  163  164 1   
   165  163  166 1   
   166  163  172 1   
   167  164  165 2   
   168  164  177 1   
   169  166  167 1   
   170  166  173 1   
   171  166  174 1   
   172  167  168 1   
   173  167  175 1   
   174  167  176 1   
   175  168  169 1   
   176  168  170 1   
   177  177  178 1   
   178  177  182 1   
   179  178  179 1   
   180  178  180 1   
   181  178  181 1   
   182  184  185 1   
   183  184  186 1   
   184  187  188 1   
   185  187  189 1   
@<TRIPOS>SUBSTRUCTURE
     1 MOL         1 TEMP              0 ****  ****    0 ROOT
