@<TRIPOS>MOLECULE
MOL
  179   176     1     0     0
SMALL
resp


@<TRIPOS>ATOM
      1 C1          1.4210    3.1250    6.8410 c3        1 MOL     -0.351546
      2 C2          1.4350    2.5260    5.4650 c         1 MOL      0.726918
      3 O1          2.4800    2.1640    4.9030 o         1 MOL     -0.614336
      4 H1          2.2890    3.7720    6.9650 hc        1 MOL      0.092722
      5 H2          0.5100    3.7110    6.9730 hc        1 MOL      0.092722
      6 H3          1.4520    2.3290    7.5850 hc        1 MOL      0.092722
      7 N1          0.3330    2.4180    4.7840 n         1 MOL     -0.536443
      8 C3          0.2580    2.3020    3.3620 c3        1 MOL      0.039483
      9 C4          0.3530    3.5870    2.6320 c         1 MOL      0.699863
     10 O2         -0.2370    4.5620    3.0010 o         1 MOL     -0.555960
     11 C5         -1.0620    1.5680    3.1070 c3        1 MOL     -0.108091
     12 C6         -1.1920    1.2670    1.6250 c         1 MOL      0.550221
     13 O3         -2.2820    1.3650    1.0150 o         1 MOL     -0.639146
     14 O4         -0.1870    0.8470    0.9620 o         1 MOL     -0.639146
     15 H4         -0.5840    2.6280    5.1620 hn        1 MOL      0.282718
     16 H5          1.0780    1.6260    3.1470 h1        1 MOL      0.090692
     17 H6         -1.8730    2.2420    3.3760 hc        1 MOL      0.036851
     18 H7         -1.0860    0.6410    3.6760 hc        1 MOL      0.036851
     19 N2          1.1370    3.4440    1.5370 n         1 MOL     -0.460716
     20 C7          1.6010    4.6200    0.7650 c3        1 MOL     -0.095229
     21 C8          0.4230    5.3940    0.2160 c         1 MOL      0.577225
     22 O5          0.5890    6.5860    0.0780 o         1 MOL     -0.567730
     23 C9          2.5630    4.1110   -0.3460 c3        1 MOL      0.024961
     24 C10         3.0570    5.2560   -1.3180 c3        1 MOL     -0.413714
     25 C11         4.0800    4.6140   -2.2440 c3        1 MOL      0.179382
     26 C12         4.3280    5.5350   -3.4260 c3        1 MOL     -0.088513
     27 N3          5.1490    4.8480   -4.4800 n4        1 MOL     -0.299716
     28 H8          1.4640    2.5370    1.2420 hn        1 MOL      0.244516
     29 H9          2.1370    5.2930    1.4320 h1        1 MOL      0.106333
     30 H10         2.0900    3.2950   -0.8900 hc        1 MOL      0.089120
     31 H11         3.4700    3.7450    0.1240 hc        1 MOL      0.089120
     32 H12         3.5990    5.9850   -0.7090 hc        1 MOL      0.128453
     33 H13         2.2650    5.7710   -1.8590 hc        1 MOL      0.128453
     34 H14         3.6230    3.7170   -2.6550 hc        1 MOL      0.041637
     35 H15         5.0250    4.4120   -1.7390 hc        1 MOL      0.041637
     36 H16         4.8940    6.3530   -2.9710 hx        1 MOL      0.105534
     37 H17         3.3910    5.8230   -3.8950 hx        1 MOL      0.105534
     38 H18         5.5280    5.5980   -5.0380 hn        1 MOL      0.312253
     39 H19         5.8240    4.1450   -4.2140 hn        1 MOL      0.312253
     40 H20         4.4570    4.4390   -5.0970 hn        1 MOL      0.312253
     41 N4         -0.6020    4.6800   -0.1810 n         1 MOL     -0.291511
     42 C13        -1.7390    5.3930   -0.8020 c3        1 MOL     -0.014340
     43 C14        -3.1310    5.2670   -0.0890 c         1 MOL      0.380235
     44 O6         -4.0980    6.0780   -0.1810 o         1 MOL     -0.523861
     45 C15        -1.7840    5.0680   -2.3540 c3        1 MOL     -0.174054
     46 C16        -1.7580    3.6230   -2.7320 c         1 MOL      0.739430
     47 O7         -1.6160    3.4090   -3.9790 o         1 MOL     -0.735305
     48 O8         -1.9930    2.7090   -1.9520 o         1 MOL     -0.735305
     49 H21        -0.8320    3.7660    0.1780 hn        1 MOL      0.183432
     50 H22        -1.6350    6.4710   -0.7810 h1        1 MOL      0.117934
     51 H23        -1.1520    5.7410   -2.9430 hc        1 MOL      0.072376
     52 H24        -2.7010    5.4990   -2.7520 hc        1 MOL      0.072376
     53 N5         -3.2430    4.2940    0.8560 n         1 MOL     -0.007300
     54 C17        -4.4050    3.9950    1.6730 c3        1 MOL     -0.282695
     55 C18        -5.5600    3.1220    0.9700 c         1 MOL      0.519404
     56 O9         -6.7290    3.0740    1.3910 o         1 MOL     -0.578443
     57 H25        -2.5030    3.6160    0.8880 hn        1 MOL      0.045351
     58 H26        -4.9430    4.9170    1.8950 h1        1 MOL      0.131843
     59 H27        -4.3070    3.5080    2.6370 h1        1 MOL      0.131843
     60 N6         -5.2190    2.3940   -0.0450 n         1 MOL     -0.089880
     61 C19        -6.1150    1.7720   -0.9780 c3        1 MOL     -0.191510
     62 C20        -6.7860    0.4630   -0.4410 c         1 MOL      0.480882
     63 O10        -7.5920   -0.1490   -1.0860 o         1 MOL     -0.528524
     64 C21        -5.4210    1.4730   -2.3870 c3        1 MOL     -0.231231
     65 C22        -4.6910    0.1380   -2.5770 c         1 MOL      0.719323
     66 N7         -4.8360   -0.5430   -3.6970 n         1 MOL     -0.821228
     67 O11        -3.8510   -0.2700   -1.7610 o         1 MOL     -0.580933
     68 H28        -4.2240    2.2980   -0.1690 hn        1 MOL      0.091493
     69 H29        -6.8970    2.5060   -1.1780 h1        1 MOL      0.168771
     70 H30        -4.7430    2.2590   -2.7130 hc        1 MOL      0.111926
     71 H31        -6.2420    1.4680   -3.1110 hc        1 MOL      0.111926
     72 H32        -5.3450   -0.1990   -4.4990 hn        1 MOL      0.389481
     73 H33        -4.4760   -1.4890   -3.6400 hn        1 MOL      0.389481
     74 N8         -6.4000    0.0330    0.7260 n         1 MOL     -0.175158
     75 C23        -6.8550   -1.1690    1.3500 c3        1 MOL     -0.189811
     76 C24        -5.8140   -2.2980    1.6440 c         1 MOL      0.572842
     77 O12        -6.1780   -3.2120    2.3720 o         1 MOL     -0.574750
     78 H34        -5.5480    0.4550    1.0670 hn        1 MOL      0.196310
     79 H35        -7.6280   -1.6660    0.7550 h1        1 MOL      0.118931
     80 H36        -7.3100   -0.9550    2.3200 h1        1 MOL      0.118931
     81 N9         -4.6500   -2.2320    1.0170 n         1 MOL     -0.311221
     82 C25        -3.5900   -3.2770    1.0120 c3        1 MOL      0.125274
     83 C26        -2.2100   -2.5960    1.1840 c         1 MOL      0.272625
     84 O13        -2.1110   -1.4240    0.7530 o         1 MOL     -0.368985
     85 C27        -3.5070   -3.9440   -0.3370 c3        1 MOL      0.143991
     86 C28        -4.8080   -4.6300   -0.7120 ca        1 MOL      0.001397
     87 C29        -5.7170   -3.9920   -1.5440 ca        1 MOL     -0.230744
     88 C30        -5.0420   -5.8940   -0.1250 ca        1 MOL     -0.230744
     89 C31        -7.0000   -4.4990   -1.6690 ca        1 MOL     -0.172350
     90 C32        -6.3590   -6.4300   -0.3280 ca        1 MOL     -0.172350
     91 C33        -7.3200   -5.7160   -1.1040 ca        1 MOL      0.307418
     92 O14        -8.5900   -6.2010   -1.3620 oh        1 MOL     -0.511069
     93 H37        -4.5100   -1.3640    0.5180 hn        1 MOL      0.104653
     94 H38        -3.6780   -4.0670    1.7630 h1        1 MOL      0.064760
     95 H39        -2.7380   -4.7050   -0.2450 hc        1 MOL     -0.029904
     96 H40        -3.1810   -3.2670   -1.1290 hc        1 MOL     -0.029904
     97 H41        -5.4330   -3.0230   -1.9170 ha        1 MOL      0.153860
     98 H42        -4.3600   -6.4420    0.5130 ha        1 MOL      0.153860
     99 H43        -7.6800   -3.9000   -2.2500 ha        1 MOL      0.130282
    100 H44        -6.7340   -7.3340    0.1120 ha        1 MOL      0.130282
    101 H45        -8.8340   -6.9710   -0.8490 ho        1 MOL      0.374476
    102 N10        -1.2350   -3.3390    1.6750 n         1 MOL     -0.363437
    103 C34         0.1180   -2.8570    1.6030 c3        1 MOL      0.084749
    104 C35         0.9640   -4.0120    0.9530 c         1 MOL      0.406005
    105 O15         0.8830   -5.2130    1.2580 o         1 MOL     -0.530755
    106 C36         0.5990   -2.4310    2.9880 c3        1 MOL      0.066790
    107 C37         1.9810   -1.7070    2.9670 c3        1 MOL      0.178645
    108 C38         0.5910   -3.5410    4.0590 c3        1 MOL     -0.422940
    109 C39         2.5700   -1.2410    4.3060 c3        1 MOL     -0.200411
    110 H46        -1.4300   -4.2800    2.0040 hn        1 MOL      0.300269
    111 H47         0.1970   -2.0710    0.8420 h1        1 MOL     -0.059955
    112 H48        -0.1040   -1.6550    3.2750 hc        1 MOL      0.091222
    113 H49         1.8370   -0.8610    2.3060 hc        1 MOL     -0.063115
    114 H50         2.7100   -2.4060    2.5520 hc        1 MOL     -0.063115
    115 H51         0.8780   -3.1430    5.0380 hc        1 MOL      0.104630
    116 H52        -0.3930   -3.9980    4.1400 hc        1 MOL      0.104630
    117 H53         1.3220   -4.2910    3.7760 hc        1 MOL      0.104630
    118 H54         3.2810   -0.4800    3.9900 hc        1 MOL      0.050265
    119 H55         1.8250   -0.8100    4.9740 hc        1 MOL      0.050265
    120 H56         3.1470   -2.0310    4.7920 hc        1 MOL      0.050265
    121 N11         1.9480   -3.5890    0.1560 n         1 MOL     -0.134505
    122 C40         2.9310   -4.3490   -0.6620 c3        1 MOL     -0.199950
    123 C41         4.3420   -4.0830   -0.1860 c         1 MOL      0.598741
    124 O16         4.5430   -3.0700    0.4730 o         1 MOL     -0.449380
    125 C42         2.8330   -3.9450   -2.1680 c3        1 MOL     -0.092171
    126 O17         2.9400   -2.5850   -2.3840 oh        1 MOL     -0.540295
    127 H57         1.9360   -2.5890    0.0460 hn        1 MOL      0.268236
    128 H58         2.7740   -5.4090   -0.4190 h1        1 MOL      0.114605
    129 H59         1.8570   -4.2610   -2.5310 h1        1 MOL      0.100513
    130 H60         3.6360   -4.3780   -2.7670 h1        1 MOL      0.100513
    131 H61         2.2790   -2.0210   -1.9840 ho        1 MOL      0.443855
    132 N12         5.3450   -4.8880   -0.5360 n         1 MOL     -0.520101
    133 C43         6.7780   -4.6720   -0.1900 c3        1 MOL      0.221264
    134 C44         7.3470   -3.2590   -0.5360 c         1 MOL      0.376695
    135 O18         7.9240   -2.5660    0.3390 o         1 MOL     -0.501997
    136 C45         7.7610   -5.7790   -0.6450 c3        1 MOL     -0.473239
    137 H62         5.1710   -5.5300   -1.3020 hn        1 MOL      0.298880
    138 H63         6.7720   -4.6220    0.8990 h1        1 MOL      0.078673
    139 H64         8.8000   -5.5040   -0.4950 hc        1 MOL      0.142224
    140 H65         7.5620   -6.6210    0.0200 hc        1 MOL      0.142224
    141 H66         7.6050   -6.0760   -1.6880 hc        1 MOL      0.142224
    142 N13         7.0800   -2.7120   -1.7740 n         1 MOL     -0.333496
    143 C46         7.6430   -1.3960   -2.1520 c3        1 MOL      0.028828
    144 C47         6.9230   -0.1830   -1.5640 c         1 MOL      0.346753
    145 O19         7.5580    0.9010   -1.4520 o         1 MOL     -0.523909
    146 C48         7.6790   -1.3950   -3.7080 c3        1 MOL     -0.302701
    147 H67         6.6250   -3.3050   -2.4510 hn        1 MOL      0.260134
    148 H68         8.6790   -1.3140   -1.8150 h1        1 MOL      0.140759
    149 H69         6.6800   -1.4370   -4.1290 hc        1 MOL      0.086080
    150 H70         7.9980   -0.4530   -4.1430 hc        1 MOL      0.086080
    151 H71         8.3250   -2.1590   -4.1300 hc        1 MOL      0.086080
    152 N14         5.7040   -0.4080   -1.0800 n         1 MOL     -0.095829
    153 C49         5.0570    0.5180   -0.1000 c3        1 MOL     -0.028669
    154 C50         5.4950    0.3970    1.3410 c         1 MOL      0.524624
    155 O20         5.7100    1.4630    1.9640 o         1 MOL     -0.526256
    156 C51         3.5940    0.2370   -0.2170 c3        1 MOL     -0.216104
    157 C52         3.1220    0.6850   -1.5860 c3        1 MOL      0.199615
    158 C53         1.6700    0.4130   -1.7470 c         1 MOL      0.570938
    159 O21         1.1680   -0.6850   -1.5910 o         1 MOL     -0.700832
    160 O22         0.8370    1.3250   -1.9970 o         1 MOL     -0.700832
    161 H72         5.2790   -1.2570   -1.4200 hn        1 MOL      0.190890
    162 H73         5.2340    1.5310   -0.4630 h1        1 MOL      0.006157
    163 H74         3.0900    0.7100    0.6250 hc        1 MOL      0.070937
    164 H75         3.6090   -0.8550   -0.1600 hc        1 MOL      0.070937
    165 H76         3.6320    0.1520   -2.3870 hc        1 MOL     -0.095958
    166 H77         3.3460    1.7440   -1.7290 hc        1 MOL     -0.095958
    167 N15         5.7800   -0.8270    1.9340 n         1 MOL     -0.201243
    168 C54         6.3850   -0.9740    3.3010 c3        1 MOL     -0.174998
    169 H78         7.2320   -0.2960    3.3990 h1        1 MOL      0.088540
    170 H79         5.6380   -0.7320    4.0570 h1        1 MOL      0.088540
    171 H80         6.7240   -2.0000    3.4400 h1        1 MOL      0.088540
    172 H81         5.4280   -1.6620    1.4800 hn        1 MOL      0.200163
    173 Ca1        -1.4310    0.2620   -1.3670 Ca        1 MOL      1.744432
    174 O23        -1.7520    0.7320   -4.2060 oh        1 MOL     -0.856904
    175 H82        -1.8290    1.6850   -4.3070 ho        1 MOL      0.402873
    176 H83        -1.1970    0.4590   -4.9390 ho        1 MOL      0.402873
    177 O24        -1.6650   -1.8540   -2.8240 oh        1 MOL     -0.856904
    178 H84        -1.1930   -2.0060   -3.6440 ho        1 MOL      0.402873
    179 H85        -2.5020   -2.2970   -2.9460 ho        1 MOL      0.402873
@<TRIPOS>BOND
     1    1    2 1   
     2    1    4 1   
     3    1    5 1   
     4    1    6 1   
     5    2    3 2   
     6    2    7 1   
     7    7    8 1   
     8    7   15 1   
     9    8    9 1   
    10    8   11 1   
    11    8   16 1   
    12    9   10 2   
    13    9   19 1   
    14   11   12 1   
    15   11   17 1   
    16   11   18 1   
    17   12   13 1   
    18   12   14 1   
    19   19   20 1   
    20   19   28 1   
    21   20   21 1   
    22   20   23 1   
    23   20   29 1   
    24   21   22 2   
    25   21   41 1   
    26   23   24 1   
    27   23   30 1   
    28   23   31 1   
    29   24   25 1   
    30   24   32 1   
    31   24   33 1   
    32   25   26 1   
    33   25   34 1   
    34   25   35 1   
    35   26   27 1   
    36   26   36 1   
    37   26   37 1   
    38   27   38 1   
    39   27   39 1   
    40   27   40 1   
    41   41   42 1   
    42   41   49 1   
    43   42   43 1   
    44   42   45 1   
    45   42   50 1   
    46   43   44 2   
    47   43   53 1   
    48   45   46 1   
    49   45   51 1   
    50   45   52 1   
    51   46   47 1   
    52   46   48 1   
    53   53   54 1   
    54   53   57 1   
    55   54   55 1   
    56   54   58 1   
    57   54   59 1   
    58   55   56 2   
    59   55   60 1   
    60   60   61 1   
    61   60   68 1   
    62   61   62 1   
    63   61   64 1   
    64   61   69 1   
    65   62   63 2   
    66   62   74 1   
    67   64   65 1   
    68   64   70 1   
    69   64   71 1   
    70   65   66 1   
    71   65   67 2   
    72   66   72 1   
    73   66   73 1   
    74   74   75 1   
    75   74   78 1   
    76   75   76 1   
    77   75   79 1   
    78   75   80 1   
    79   76   77 2   
    80   76   81 1   
    81   81   82 1   
    82   81   93 1   
    83   82   83 1   
    84   82   85 1   
    85   82   94 1   
    86   83   84 2   
    87   83  102 1   
    88   85   86 1   
    89   85   95 1   
    90   85   96 1   
    91   86   87 ar  
    92   86   88 ar  
    93   87   89 ar  
    94   87   97 1   
    95   88   90 ar  
    96   88   98 1   
    97   89   91 ar  
    98   89   99 1   
    99   90   91 ar  
   100   90  100 1   
   101   91   92 1   
   102   92  101 1   
   103  102  103 1   
   104  102  110 1   
   105  103  104 1   
   106  103  106 1   
   107  103  111 1   
   108  104  105 2   
   109  104  121 1   
   110  106  107 1   
   111  106  108 1   
   112  106  112 1   
   113  107  109 1   
   114  107  113 1   
   115  107  114 1   
   116  108  115 1   
   117  108  116 1   
   118  108  117 1   
   119  109  118 1   
   120  109  119 1   
   121  109  120 1   
   122  121  122 1   
   123  121  127 1   
   124  122  123 1   
   125  122  125 1   
   126  122  128 1   
   127  123  124 2   
   128  123  132 1   
   129  125  126 1   
   130  125  129 1   
   131  125  130 1   
   132  126  131 1   
   133  132  133 1   
   134  132  137 1   
   135  133  134 1   
   136  133  136 1   
   137  133  138 1   
   138  134  135 2   
   139  134  142 1   
   140  136  139 1   
   141  136  140 1   
   142  136  141 1   
   143  142  143 1   
   144  142  147 1   
   145  143  144 1   
   146  143  146 1   
   147  143  148 1   
   148  144  145 2   
   149  144  152 1   
   150  146  149 1   
   151  146  150 1   
   152  146  151 1   
   153  152  153 1   
   154  152  161 1   
   155  153  154 1   
   156  153  156 1   
   157  153  162 1   
   158  154  155 2   
   159  154  167 1   
   160  156  157 1   
   161  156  163 1   
   162  156  164 1   
   163  157  158 1   
   164  157  165 1   
   165  157  166 1   
   166  158  159 1   
   167  158  160 1   
   168  167  168 1   
   169  167  172 1   
   170  168  169 1   
   171  168  170 1   
   172  168  171 1   
   173  174  175 1   
   174  174  176 1   
   175  177  178 1   
   176  177  179 1   
@<TRIPOS>SUBSTRUCTURE
     1 MOL         1 TEMP              0 ****  ****    0 ROOT
