@<TRIPOS>MOLECULE
MOL
  189   185     1     0     0
SMALL
resp


@<TRIPOS>ATOM
      1 C1         -0.1480    2.9560   -4.7000 c3        1 MOL     -0.376597
      2 C2          0.5020    2.6290   -3.3630 c         1 MOL      0.559269
      3 O1         -0.1350    2.8980   -2.2970 o         1 MOL     -0.524061
      4 H1          0.6200    3.2560   -5.4130 hc        1 MOL      0.097232
      5 H2         -0.6690    2.0760   -5.0760 hc        1 MOL      0.097232
      6 H3         -0.8600    3.7710   -4.5680 hc        1 MOL      0.097232
      7 N1          1.6530    1.9930   -3.3750 n         1 MOL     -0.500029
      8 C3          2.3820    1.5210   -2.2270 c3        1 MOL      0.082066
      9 C4          3.1960    2.7120   -1.8070 c         1 MOL      0.526028
     10 O2          4.4110    2.6710   -1.6720 o         1 MOL     -0.461023
     11 C5          3.2760    0.3490   -2.6530 c3        1 MOL     -0.256966
     12 C6          4.1240   -0.2440   -1.4660 c         1 MOL      0.604910
     13 O3          3.8820   -0.0320   -0.2110 o         1 MOL     -0.563997
     14 O4          5.0980   -0.8810   -1.8460 o         1 MOL     -0.563997
     15 H4          2.0800    1.8370   -4.2820 hn        1 MOL      0.317730
     16 H5          1.6230    1.2490   -1.4950 h1        1 MOL      0.130179
     17 H6          3.8800    0.5580   -3.5390 hc        1 MOL      0.072450
     18 H7          2.6060   -0.4890   -2.8800 hc        1 MOL      0.072450
     19 N2          2.4870    3.7570   -1.3820 n         1 MOL     -0.523661
     20 C7          3.0290    4.9970   -0.8650 c3        1 MOL     -0.033909
     21 C8          3.5990    4.9500    0.5910 c         1 MOL      0.561252
     22 O5          4.3310    5.8470    0.9570 o         1 MOL     -0.590562
     23 C9          2.0550    6.1760   -0.9840 c3        1 MOL     -0.357622
     24 C10         1.5990    6.4240   -2.4140 c3        1 MOL      0.416512
     25 C11         0.7660    7.6810   -2.6630 c3        1 MOL     -0.141083
     26 C12         1.7050    8.9000   -2.6090 c3        1 MOL      0.073935
     27 N3          2.4690    9.0890   -3.8250 n4        1 MOL     -0.461673
     28 H8          1.4760    3.7090   -1.3450 hn        1 MOL      0.394007
     29 H9          3.9330    5.3380   -1.3710 h1        1 MOL      0.084020
     30 H10         2.5390    7.1140   -0.7230 hc        1 MOL      0.113486
     31 H11         1.1390    5.9470   -0.4330 hc        1 MOL      0.113486
     32 H12         0.8920    5.6160   -2.6410 hc        1 MOL     -0.084655
     33 H13         2.3500    6.3360   -3.1930 hc        1 MOL     -0.084655
     34 H14         0.1280    8.0330   -1.8520 hc        1 MOL      0.055710
     35 H15         0.2680    7.6110   -3.6260 hc        1 MOL      0.055710
     36 H16         2.2110    8.9270   -1.6470 hx        1 MOL      0.067878
     37 H17         1.0550    9.7790   -2.5380 hx        1 MOL      0.067878
     38 H18         3.2100    8.4300   -4.0030 hn        1 MOL      0.352673
     39 H19         1.8870    9.1530   -4.6460 hn        1 MOL      0.352673
     40 H20         2.8790   10.0000   -3.6840 hn        1 MOL      0.352673
     41 N4          3.4070    3.8760    1.3300 n         1 MOL     -0.365409
     42 C13         4.0980    3.6830    2.6090 c3        1 MOL      0.127176
     43 C14         5.2390    2.6420    2.5520 c         1 MOL      0.365684
     44 O6          5.9670    2.5560    3.5120 o         1 MOL     -0.509810
     45 C15         3.0730    3.3610    3.7060 c3        1 MOL     -0.306757
     46 C16         2.2080    2.1500    3.4700 c         1 MOL      0.883050
     47 O7          2.5520    1.3330    2.5690 o         1 MOL     -0.742640
     48 O8          1.1820    1.9560    4.2210 o         1 MOL     -0.742640
     49 H21         2.9250    3.1170    0.8720 hn        1 MOL      0.274709
     50 H22         4.6370    4.5800    2.9170 h1        1 MOL      0.079719
     51 H23         2.4010    4.1800    3.9810 hc        1 MOL      0.065083
     52 H24         3.5810    3.0930    4.6280 hc        1 MOL      0.065083
     53 N5          5.3330    1.9140    1.4460 n         1 MOL      0.206463
     54 C17         6.4470    1.1780    1.0660 c3        1 MOL     -0.367710
     55 C18         6.7330    0.0160    1.9610 c         1 MOL      0.759399
     56 O9          7.4230    0.0870    2.9810 o         1 MOL     -0.575948
     57 H25         4.5080    1.9820    0.8620 hn        1 MOL     -0.123787
     58 H26         7.4030    1.7060    1.0680 h1        1 MOL      0.099189
     59 H27         6.2640    0.7440    0.0840 h1        1 MOL      0.099189
     60 N6          6.2530   -1.0790    1.4770 n         1 MOL     -0.503680
     61 C19         6.5450   -2.3920    1.9580 c3        1 MOL     -0.014340
     62 C20         6.6300   -3.5070    0.9050 c         1 MOL      0.499463
     63 O10         6.7750   -4.6540    1.2730 o         1 MOL     -0.532825
     64 C21         5.5520   -2.7090    3.0730 c3        1 MOL     -0.102356
     65 C22         4.1250   -2.3210    2.5870 c         1 MOL      0.693159
     66 O11         3.7400   -2.6710    1.4420 o         1 MOL     -0.688136
     67 O12         3.3740   -1.6710    3.3190 o         1 MOL     -0.688136
     68 H28         5.5750   -0.9130    0.7480 hn        1 MOL      0.182224
     69 H29         7.5100   -2.4590    2.4540 h1        1 MOL      0.097392
     70 H30         5.8400   -2.0610    3.8960 hc        1 MOL      0.047165
     71 H31         5.5470   -3.7140    3.4860 hc        1 MOL      0.047165
     72 N7          6.4960   -3.1700   -0.3970 n         1 MOL     -0.355873
     73 C23         6.3950   -4.1250   -1.5570 c3        1 MOL     -0.125281
     74 C24         4.9950   -4.6630   -1.8020 c         1 MOL      0.531325
     75 O13         4.8410   -5.5930   -2.5300 o         1 MOL     -0.590013
     76 H32         6.1300   -2.2370   -0.5570 hn        1 MOL      0.230250
     77 H33         7.0230   -4.9910   -1.3450 h1        1 MOL      0.103229
     78 H34         6.7040   -3.6780   -2.5000 h1        1 MOL      0.103229
     79 N8          3.9910   -4.2230   -1.0800 n         1 MOL     -0.070672
     80 C25         2.6270   -4.7520   -1.0690 c3        1 MOL     -0.325666
     81 C26         1.5530   -3.6850   -1.2300 c         1 MOL      0.716678
     82 O14         1.7630   -2.5400   -0.7850 o         1 MOL     -0.649283
     83 C27         2.3540   -5.7370    0.1280 c3        1 MOL      0.644492
     84 C28         2.9990   -7.0880   -0.1010 c3        1 MOL     -0.359956
     85 O15         2.8940   -5.2300    1.2560 oh        1 MOL     -0.701037
     86 H35         4.1310   -3.4270   -0.4690 hn        1 MOL      0.110971
     87 H36         2.5190   -5.4050   -1.9350 h1        1 MOL      0.094966
     88 H37         1.2840   -5.9540    0.1990 h1        1 MOL     -0.095212
     89 H38         3.2180   -4.3270    1.1520 ho        1 MOL      0.437735
     90 H39         2.7180   -7.4350   -1.0970 hc        1 MOL      0.081053
     91 H40         4.0730   -6.9390   -0.0130 hc        1 MOL      0.081053
     92 H41         2.6670   -7.8450    0.6080 hc        1 MOL      0.081053
     93 N9          0.4010   -3.9980   -1.8320 n         1 MOL     -0.644131
     94 C29        -0.7150   -3.0050   -2.0760 c3        1 MOL      0.031718
     95 C30        -1.9670   -3.5500   -1.3170 c         1 MOL      0.592747
     96 O16        -2.3050   -4.7090   -1.4670 o         1 MOL     -0.574516
     97 C31        -1.0540   -2.6300   -3.5390 c3        1 MOL      0.105802
     98 C32         0.0890   -1.8670   -4.2370 c3        1 MOL      0.068847
     99 C33        -2.4300   -1.9170   -3.7220 c3        1 MOL     -0.131352
    100 C34        -0.0360   -1.6640   -5.7640 c3        1 MOL     -0.084622
    101 H42         0.2740   -4.9470   -2.1790 hn        1 MOL      0.331431
    102 H43        -0.4470   -2.0600   -1.6040 h1        1 MOL      0.123750
    103 H44        -1.1490   -3.5450   -4.1270 hc        1 MOL     -0.006940
    104 H45         1.0510   -2.3640   -4.1160 hc        1 MOL      0.000326
    105 H46         0.2480   -0.8950   -3.7730 hc        1 MOL      0.000326
    106 H47        -2.3100   -0.9420   -3.2480 hc        1 MOL      0.014302
    107 H48        -2.5740   -1.8090   -4.7930 hc        1 MOL      0.014302
    108 H49        -3.2420   -2.4820   -3.2650 hc        1 MOL      0.014302
    109 H50         0.8180   -1.0790   -6.1190 hc        1 MOL      0.015328
    110 H51        -0.0340   -2.6130   -6.2880 hc        1 MOL      0.015328
    111 H52        -0.9380   -1.1160   -6.0430 hc        1 MOL      0.015328
    112 N10        -2.6440   -2.7570   -0.4760 n         1 MOL     -0.333461
    113 C35        -3.9200   -3.1190    0.1830 c3        1 MOL      0.094232
    114 C36        -5.1080   -2.5720   -0.5750 c         1 MOL      0.311222
    115 O17        -4.9780   -1.6350   -1.4120 o         1 MOL     -0.250190
    116 C37        -3.9860   -2.6160    1.6510 c3        1 MOL     -0.008682
    117 C38        -3.0150   -3.3770    2.5710 c3        1 MOL     -0.176172
    118 O18        -3.6850   -1.2410    1.6540 oh        1 MOL     -0.273859
    119 H53        -2.3580   -1.7840   -0.4140 hn        1 MOL      0.220499
    120 H54        -3.9940   -4.1980    0.2600 h1        1 MOL      0.082542
    121 H55        -4.9980   -2.8010    2.0070 h1        1 MOL      0.038342
    122 H56        -3.4100   -1.0080    2.5400 ho        1 MOL      0.314745
    123 H57        -1.9920   -3.2850    2.1790 hc        1 MOL      0.065248
    124 H58        -3.0280   -2.9760    3.5820 hc        1 MOL      0.065248
    125 H59        -3.2870   -4.4300    2.6490 hc        1 MOL      0.065248
    126 N11        -6.3540   -2.9650   -0.2310 n         1 MOL     -0.385443
    127 C39        -7.5750   -2.2700   -0.7070 c3        1 MOL     -0.166939
    128 C40        -7.5130   -0.8370   -0.3060 c         1 MOL      0.287296
    129 O19        -7.9420   -0.0260   -1.1100 o         1 MOL     -0.455615
    130 C41        -8.8560   -2.8650    0.0120 c3        1 MOL      0.359268
    131 C42        -9.1870   -4.2560   -0.6370 c3        1 MOL     -0.354683
    132 O20        -8.6050   -3.0010    1.3610 oh        1 MOL     -0.625950
    133 H60        -6.5000   -3.7400    0.3920 hn        1 MOL      0.307455
    134 H61        -7.5860   -2.3580   -1.7880 h1        1 MOL      0.165090
    135 H62        -9.7500   -2.2750   -0.1700 h1        1 MOL      0.045112
    136 H63        -9.4470   -3.2490    1.7620 ho        1 MOL      0.409207
    137 H64        -8.6500   -5.0610   -0.1370 hc        1 MOL      0.095006
    138 H65       -10.2610   -4.3910   -0.5710 hc        1 MOL      0.095006
    139 H66        -9.0760   -4.1510   -1.7210 hc        1 MOL      0.095006
    140 N12        -6.9990   -0.4340    0.8690 n         1 MOL     -0.012189
    141 C43        -7.0240    0.9110    1.3390 c3        1 MOL     -0.379190
    142 C44        -6.2050    1.7840    0.3150 c         1 MOL      0.504724
    143 O21        -6.5930    2.9160    0.0860 o         1 MOL     -0.509945
    144 C45        -6.5230    0.9520    2.7850 c3        1 MOL     -0.070925
    145 C46        -6.9020    2.2410    3.5000 c3        1 MOL      0.158450
    146 C47        -6.4570    2.3550    4.9930 c3        1 MOL     -0.088234
    147 C48        -6.9630    3.6950    5.6720 c3        1 MOL      0.149064
    148 N13        -6.2910    3.8700    7.0410 n4        1 MOL     -0.356806
    149 H67        -6.7700   -1.1740    1.5150 hn        1 MOL      0.177748
    150 H68        -8.0530    1.2820    1.3880 h1        1 MOL      0.168380
    151 H69        -5.4470    0.8290    2.9220 hc        1 MOL      0.023980
    152 H70        -6.8050    0.0370    3.3040 hc        1 MOL      0.023980
    153 H71        -7.9880    2.3630    3.4320 hc        1 MOL      0.001478
    154 H72        -6.5150    3.0710    2.9050 hc        1 MOL      0.001478
    155 H73        -5.3660    2.3250    4.9920 hc        1 MOL      0.032128
    156 H74        -6.9750    1.5490    5.4940 hc        1 MOL      0.032128
    157 H75        -8.0170    3.6030    5.9240 hx        1 MOL      0.054127
    158 H76        -6.8250    4.5330    4.9900 hx        1 MOL      0.054127
    159 H77        -6.4230    4.8170    7.3670 hn        1 MOL      0.306861
    160 H78        -6.5440    3.1040    7.6480 hn        1 MOL      0.306861
    161 H79        -5.2890    3.7480    7.0950 hn        1 MOL      0.306861
    162 N14        -4.9790    1.3160   -0.1090 n         1 MOL      0.015546
    163 C49        -4.1150    1.8740   -1.1250 c3        1 MOL     -0.469871
    164 C50        -4.7870    1.8850   -2.4840 c         1 MOL      0.665295
    165 O22        -4.9200    3.0030   -2.9470 o         1 MOL     -0.571874
    166 C51        -2.6830    1.2530   -1.0910 c3        1 MOL      0.178936
    167 C52        -2.0200    1.5260    0.2590 c3        1 MOL     -0.360981
    168 C53        -0.6600    0.8930    0.3480 c         1 MOL      0.893843
    169 O23         0.3760    1.5880    0.5930 o         1 MOL     -0.865466
    170 O24        -0.5450   -0.2930    0.1830 o         1 MOL     -0.865466
    171 H80        -4.6980    0.4590    0.3330 hn        1 MOL      0.022668
    172 H81        -3.8290    2.9100   -0.9190 h1        1 MOL      0.152313
    173 H82        -2.2210    1.8240   -1.8960 hc        1 MOL      0.038599
    174 H83        -2.7440    0.1820   -1.2740 hc        1 MOL      0.038599
    175 H84        -2.6480    1.0230    0.9870 hc        1 MOL      0.078716
    176 H85        -1.9080    2.6010    0.4430 hc        1 MOL      0.078716
    177 N15        -5.1400    0.7400   -3.0660 n         1 MOL     -0.204317
    178 C54        -5.6720    0.7020   -4.4350 c3        1 MOL     -0.302838
    179 H86        -5.0510    1.3210   -5.0830 h1        1 MOL      0.113194
    180 H87        -5.6640   -0.3250   -4.8000 h1        1 MOL      0.113194
    181 H88        -6.6930    1.0830   -4.4390 h1        1 MOL      0.113194
    182 H89        -5.0410   -0.1260   -2.5530 hn        1 MOL      0.150810
    183 Ca1         1.8770   -0.7510    1.2210 Ca        1 MOL      1.753163
    184 O25         0.7180   -2.9040    2.0930 oh        1 MOL     -0.788150
    185 H90         1.2460   -3.7040    2.0420 ho        1 MOL      0.368457
    186 H91         0.2970   -2.9470    2.9490 ho        1 MOL      0.368457
    187 O26         0.0090   -0.2440    3.2590 oh        1 MOL     -0.788150
    188 H92         0.2690    0.6420    3.5340 ho        1 MOL      0.368457
    189 H93        -0.9420   -0.2410    3.3400 ho        1 MOL      0.368457
@<TRIPOS>BOND
     1    1    2 1   
     2    1    4 1   
     3    1    5 1   
     4    1    6 1   
     5    2    3 2   
     6    2    7 1   
     7    7    8 1   
     8    7   15 1   
     9    8    9 1   
    10    8   11 1   
    11    8   16 1   
    12    9   10 2   
    13    9   19 1   
    14   11   12 1   
    15   11   17 1   
    16   11   18 1   
    17   12   13 1   
    18   12   14 1   
    19   19   20 1   
    20   19   28 1   
    21   20   21 1   
    22   20   23 1   
    23   20   29 1   
    24   21   22 2   
    25   21   41 1   
    26   23   24 1   
    27   23   30 1   
    28   23   31 1   
    29   24   25 1   
    30   24   32 1   
    31   24   33 1   
    32   25   26 1   
    33   25   34 1   
    34   25   35 1   
    35   26   27 1   
    36   26   36 1   
    37   26   37 1   
    38   27   38 1   
    39   27   39 1   
    40   27   40 1   
    41   41   42 1   
    42   41   49 1   
    43   42   43 1   
    44   42   45 1   
    45   42   50 1   
    46   43   44 2   
    47   43   53 1   
    48   45   46 1   
    49   45   51 1   
    50   45   52 1   
    51   46   47 1   
    52   46   48 1   
    53   53   54 1   
    54   53   57 1   
    55   54   55 1   
    56   54   58 1   
    57   54   59 1   
    58   55   56 2   
    59   55   60 1   
    60   60   61 1   
    61   60   68 1   
    62   61   62 1   
    63   61   64 1   
    64   61   69 1   
    65   62   63 2   
    66   62   72 1   
    67   64   65 1   
    68   64   70 1   
    69   64   71 1   
    70   65   66 1   
    71   65   67 1   
    72   72   73 1   
    73   72   76 1   
    74   73   74 1   
    75   73   77 1   
    76   73   78 1   
    77   74   75 2   
    78   74   79 1   
    79   79   80 1   
    80   79   86 1   
    81   80   81 1   
    82   80   83 1   
    83   80   87 1   
    84   81   82 2   
    85   81   93 1   
    86   83   84 1   
    87   83   85 1   
    88   83   88 1   
    89   84   90 1   
    90   84   91 1   
    91   84   92 1   
    92   85   89 1   
    93   93   94 1   
    94   93  101 1   
    95   94   95 1   
    96   94   97 1   
    97   94  102 1   
    98   95   96 2   
    99   95  112 1   
   100   97   98 1   
   101   97   99 1   
   102   97  103 1   
   103   98  100 1   
   104   98  104 1   
   105   98  105 1   
   106   99  106 1   
   107   99  107 1   
   108   99  108 1   
   109  100  109 1   
   110  100  110 1   
   111  100  111 1   
   112  112  113 1   
   113  112  119 1   
   114  113  114 1   
   115  113  116 1   
   116  113  120 1   
   117  114  115 2   
   118  114  126 1   
   119  116  117 1   
   120  116  118 1   
   121  116  121 1   
   122  117  123 1   
   123  117  124 1   
   124  117  125 1   
   125  118  122 1   
   126  126  127 1   
   127  126  133 1   
   128  127  128 1   
   129  127  130 1   
   130  127  134 1   
   131  128  129 2   
   132  128  140 1   
   133  130  131 1   
   134  130  132 1   
   135  130  135 1   
   136  131  137 1   
   137  131  138 1   
   138  131  139 1   
   139  132  136 1   
   140  140  141 1   
   141  140  149 1   
   142  141  142 1   
   143  141  144 1   
   144  141  150 1   
   145  142  143 2   
   146  142  162 1   
   147  144  145 1   
   148  144  151 1   
   149  144  152 1   
   150  145  146 1   
   151  145  153 1   
   152  145  154 1   
   153  146  147 1   
   154  146  155 1   
   155  146  156 1   
   156  147  148 1   
   157  147  157 1   
   158  147  158 1   
   159  148  159 1   
   160  148  160 1   
   161  148  161 1   
   162  162  163 1   
   163  162  171 1   
   164  163  164 1   
   165  163  166 1   
   166  163  172 1   
   167  164  165 2   
   168  164  177 1   
   169  166  167 1   
   170  166  173 1   
   171  166  174 1   
   172  167  168 1   
   173  167  175 1   
   174  167  176 1   
   175  168  169 1   
   176  168  170 1   
   177  177  178 1   
   178  177  182 1   
   179  178  179 1   
   180  178  180 1   
   181  178  181 1   
   182  184  185 1   
   183  184  186 1   
   184  187  188 1   
   185  187  189 1   
@<TRIPOS>SUBSTRUCTURE
     1 MOL         1 TEMP              0 ****  ****    0 ROOT
