@<TRIPOS>MOLECULE
MOL
  176   174     1     0     0
SMALL
resp


@<TRIPOS>ATOM
      1 C1          0.4560    3.4280    6.5510 c3        1 MOL     -0.362142
      2 C2          0.3480    2.7350    5.1920 c         1 MOL      0.671699
      3 O1          1.3510    2.2030    4.6640 o         1 MOL     -0.573875
      4 H1         -0.5100    3.3910    7.0540 hc        1 MOL      0.096930
      5 H2          1.2020    2.9180    7.1610 hc        1 MOL      0.096930
      6 H3          0.7510    4.4670    6.4080 hc        1 MOL      0.096930
      7 N1         -0.7960    2.8660    4.5360 n         1 MOL     -0.532871
      8 C3         -1.0390    2.5460    3.1240 c3        1 MOL      0.074882
      9 C4         -1.2100    3.8260    2.2650 c         1 MOL      0.610230
     10 O2         -1.7220    4.8440    2.7180 o         1 MOL     -0.547161
     11 C5         -2.3010    1.6570    3.1670 c3        1 MOL     -0.197201
     12 C6         -2.7070    1.1760    1.7350 c         1 MOL      0.795631
     13 O3         -2.8250   -0.0320    1.5400 o         1 MOL     -0.747791
     14 O4         -2.7630    1.9420    0.7500 o         1 MOL     -0.747791
     15 H4         -1.5880    3.1670    5.0710 hn        1 MOL      0.302165
     16 H5         -0.2440    1.9300    2.6960 h1        1 MOL      0.080968
     17 H6         -3.1700    2.1920    3.5350 hc        1 MOL      0.052892
     18 H7         -2.1980    0.8110    3.8460 hc        1 MOL      0.052892
     19 N2         -0.5390    3.7700    1.0990 n         1 MOL     -0.408032
     20 C7         -0.3240    4.9350    0.1740 c3        1 MOL     -0.129268
     21 C8         -1.5130    5.2080   -0.8030 c         1 MOL      0.536223
     22 O5         -1.7420    6.3690   -1.1990 o         1 MOL     -0.571288
     23 C9          0.8340    4.6070   -0.7060 c3        1 MOL      0.360247
     24 C10         1.5080    5.8610   -1.2900 c3        1 MOL     -0.235454
     25 C11         2.2470    5.5220   -2.5760 c3        1 MOL      0.041299
     26 C12         3.2190    6.5780   -3.1930 c3        1 MOL      0.093818
     27 N3          3.9540    6.0750   -4.3500 n4        1 MOL     -0.392931
     28 H8         -0.0250    2.9470    0.8030 hn        1 MOL      0.254253
     29 H9         -0.0530    5.8370    0.7210 h1        1 MOL      0.111291
     30 H10         0.4530    4.0630   -1.5700 hc        1 MOL     -0.039024
     31 H11         1.5320    3.9760   -0.1670 hc        1 MOL     -0.039024
     32 H12         2.1040    6.3000   -0.4970 hc        1 MOL      0.051757
     33 H13         0.7310    6.6010   -1.5410 hc        1 MOL      0.051757
     34 H14         1.4830    5.3770   -3.3350 hc        1 MOL      0.007787
     35 H15         2.7300    4.5490   -2.4550 hc        1 MOL      0.007787
     36 H16         3.8970    6.8490   -2.3850 hx        1 MOL      0.068072
     37 H17         2.7190    7.4610   -3.5930 hx        1 MOL      0.068072
     38 H18         3.2740    5.5850   -4.9160 hn        1 MOL      0.337601
     39 H19         4.3280    6.8800   -4.8340 hn        1 MOL      0.337601
     40 H20         4.6500    5.4140   -4.0300 hn        1 MOL      0.337601
     41 N4         -2.4570    4.2730   -1.0550 n         1 MOL     -0.332982
     42 C13        -3.6280    4.3720   -1.9470 c3        1 MOL      0.133914
     43 C14        -4.9480    4.0550   -1.1830 c         1 MOL      0.442341
     44 O6         -6.0130    4.5040   -1.6610 o         1 MOL     -0.567742
     45 C15        -3.4640    3.4040   -3.1120 c3        1 MOL     -0.325134
     46 C16        -3.0110    2.0200   -2.7250 c         1 MOL      0.812907
     47 O7         -1.8460    1.6290   -3.0230 o         1 MOL     -0.763489
     48 O8         -3.7750    1.3300   -1.9980 o         1 MOL     -0.763489
     49 H21        -2.2190    3.4090   -0.5930 hn        1 MOL      0.213970
     50 H22        -3.7850    5.3910   -2.3050 h1        1 MOL      0.085083
     51 H23        -2.7080    3.8170   -3.7700 hc        1 MOL      0.080521
     52 H24        -4.3780    3.3590   -3.7210 hc        1 MOL      0.080521
     53 N5         -4.9090    3.2830   -0.1140 n         1 MOL     -0.205775
     54 C17        -5.9990    2.9610    0.8210 c3        1 MOL     -0.154273
     55 C18        -6.7450    1.6390    0.4160 c         1 MOL      0.440947
     56 O9         -7.7620    1.2870    0.9840 o         1 MOL     -0.549934
     57 H25        -4.0600    2.7590    0.0280 hn        1 MOL      0.122382
     58 H26        -6.6880    3.8040    0.8520 h1        1 MOL      0.113687
     59 H27        -5.6000    2.8640    1.8340 h1        1 MOL      0.113687
     60 N6         -6.1450    0.8420   -0.4620 n         1 MOL     -0.110186
     61 C19        -6.8290   -0.3440   -0.8840 c3        1 MOL     -0.004522
     62 C20        -7.0580   -1.4670    0.1030 c         1 MOL      0.442815
     63 O10        -8.0860   -2.2020   -0.1120 o         1 MOL     -0.541661
     64 C21        -6.1700   -0.9480   -2.1260 c3        1 MOL     -0.384162
     65 C22        -4.9420   -1.7860   -1.8930 c         1 MOL      0.716707
     66 N7         -4.7740   -2.8590   -2.6680 n         1 MOL     -0.682077
     67 O11        -4.1120   -1.5400   -1.0130 o         1 MOL     -0.750403
     68 H28        -5.3660    1.2240   -0.9880 hn        1 MOL      0.224355
     69 H29        -7.7650    0.1600   -1.1230 h1        1 MOL      0.100023
     70 H30        -5.8380   -0.0470   -2.6440 hc        1 MOL      0.130730
     71 H31        -6.9690   -1.4080   -2.7160 hc        1 MOL      0.130730
     72 H32        -5.5170   -3.0940   -3.3020 hn        1 MOL      0.333534
     73 H33        -3.8340   -3.2390   -2.6620 hn        1 MOL      0.333534
     74 N8         -6.1460   -1.5850    1.0730 n         1 MOL     -0.172724
     75 C23        -6.1580   -2.6340    2.1310 c3        1 MOL     -0.149545
     76 C24        -4.8890   -3.5260    2.2480 c         1 MOL      0.618192
     77 O12        -4.8570   -4.3300    3.1540 o         1 MOL     -0.577655
     78 H34        -5.3450   -0.9630    1.0360 hn        1 MOL      0.174343
     79 H35        -6.9140   -3.3570    1.8390 h1        1 MOL      0.099681
     80 H36        -6.3330   -2.2370    3.1310 h1        1 MOL      0.099681
     81 N9         -3.8470   -3.3620    1.4360 n         1 MOL     -0.508806
     82 C25        -2.5700   -4.0500    1.5820 c3        1 MOL      0.143316
     83 C26        -1.3900   -3.1390    1.2570 c         1 MOL      0.637481
     84 O13        -1.5050   -2.2860    0.4320 o         1 MOL     -0.610670
     85 C27        -2.5080   -5.3350    0.7220 c3        1 MOL     -0.115988
     86 C28        -2.1530   -5.2270   -0.7690 ca        1 MOL     -0.028825
     87 C29        -0.8520   -5.0260   -1.2670 ca        1 MOL     -0.061055
     88 C30        -3.2260   -5.3310   -1.6890 ca        1 MOL     -0.061055
     89 C31        -0.5700   -5.1450   -2.6210 ca        1 MOL     -0.313848
     90 C32        -2.9920   -5.3230   -3.0800 ca        1 MOL     -0.313848
     91 C33        -1.6580   -5.2870   -3.5100 ca        1 MOL      0.378152
     92 O14        -1.3530   -5.4730   -4.7950 oh        1 MOL     -0.479452
     93 H37        -3.8370   -2.4620    0.9780 hn        1 MOL      0.351654
     94 H38        -2.4900   -4.2740    2.6450 h1        1 MOL      0.058277
     95 H39        -3.4400   -5.8970    0.7900 hc        1 MOL      0.066452
     96 H40        -1.8730   -5.9840    1.3260 hc        1 MOL      0.066452
     97 H41        -0.0490   -4.9200   -0.5540 ha        1 MOL      0.123863
     98 H42        -4.2460   -5.3520   -1.3340 ha        1 MOL      0.123863
     99 H43         0.4330   -5.0590   -3.0240 ha        1 MOL      0.158980
    100 H44        -3.8100   -5.2540   -3.7910 ha        1 MOL      0.158980
    101 H45        -0.4050   -5.3310   -4.7460 ho        1 MOL      0.339589
    102 N10        -0.2570   -3.4710    1.8380 n         1 MOL     -0.562670
    103 C34         1.0170   -2.8840    1.4950 c3        1 MOL     -0.108454
    104 C35         2.1270   -3.8030    0.8310 c         1 MOL      0.606896
    105 O15         2.1680   -4.9770    1.0020 o         1 MOL     -0.526618
    106 C36         1.6420   -2.1370    2.6230 c3        1 MOL      0.159829
    107 C37         1.8460   -3.0260    3.8910 c3        1 MOL     -0.013131
    108 C38         0.8050   -0.9330    3.0750 c3        1 MOL     -0.285132
    109 C39         2.7980   -2.5680    4.9860 c3        1 MOL     -0.190466
    110 H46        -0.2500   -4.2150    2.5120 hn        1 MOL      0.306608
    111 H47         0.8670   -2.0830    0.7670 h1        1 MOL      0.156900
    112 H48         2.6370   -1.7960    2.3080 hc        1 MOL     -0.030543
    113 H49         2.1520   -4.0080    3.5270 hc        1 MOL      0.027487
    114 H50         0.9030   -3.1940    4.4080 hc        1 MOL      0.027487
    115 H51         0.7450   -0.1790    2.2960 hc        1 MOL      0.090068
    116 H52        -0.2150   -1.2230    3.3390 hc        1 MOL      0.090068
    117 H53         1.2520   -0.4160    3.9280 hc        1 MOL      0.090068
    118 H54         2.4310   -3.0380    5.8970 hc        1 MOL      0.049363
    119 H55         3.8490   -2.8380    4.8660 hc        1 MOL      0.049363
    120 H56         2.7410   -1.4960    5.1750 hc        1 MOL      0.049363
    121 N11         3.0340   -3.1380    0.0660 n         1 MOL     -0.534285
    122 C40         4.3460   -3.6320   -0.5020 c3        1 MOL      0.294592
    123 C41         5.5220   -2.8680    0.0720 c         1 MOL      0.286900
    124 O16         5.2960   -1.8510    0.7490 o         1 MOL     -0.350959
    125 C42         4.2650   -3.5420   -1.9700 c3        1 MOL     -0.088430
    126 O17         4.5190   -2.1990   -2.4380 oh        1 MOL     -0.516707
    127 H57         2.9920   -2.1340    0.1820 hn        1 MOL      0.254752
    128 H58         4.4720   -4.6890   -0.2440 h1        1 MOL      0.032474
    129 H59         3.3480   -3.9340   -2.4020 h1        1 MOL      0.070150
    130 H60         5.0810   -4.1340   -2.3810 h1        1 MOL      0.070150
    131 H61         4.0590   -2.1890   -3.2780 ho        1 MOL      0.400693
    132 N12         6.7680   -3.2990   -0.1910 n         1 MOL     -0.346502
    133 C43         7.9420   -2.4890    0.1850 c3        1 MOL      0.046916
    134 C44         7.9270   -0.9990   -0.3760 c         1 MOL      0.431656
    135 O18         8.3870   -0.0910    0.3230 o         1 MOL     -0.503786
    136 C45         9.1570   -3.2650   -0.3400 c3        1 MOL     -0.411693
    137 H62         6.8880   -4.1420   -0.7370 hn        1 MOL      0.285323
    138 H63         7.9550   -2.4540    1.2770 h1        1 MOL      0.126786
    139 H64         9.1540   -3.6470   -1.3570 hc        1 MOL      0.124711
    140 H65        10.0330   -2.6100   -0.3510 hc        1 MOL      0.124711
    141 H66         9.2920   -4.2180    0.1810 hc        1 MOL      0.124711
    142 N13         7.4210   -0.7640   -1.5520 n         1 MOL     -0.198857
    143 C46         7.3540    0.5320   -2.1380 c3        1 MOL     -0.004801
    144 C47         6.4370    1.5010   -1.3890 c         1 MOL      0.370977
    145 O19         6.7160    2.6970   -1.2730 o         1 MOL     -0.508817
    146 C48         6.8110    0.3670   -3.5960 c3        1 MOL     -0.238707
    147 H67         7.1600   -1.5510   -2.1300 hn        1 MOL      0.192337
    148 H68         8.3490    0.9800   -2.1460 h1        1 MOL      0.106875
    149 H69         6.6610    1.3230   -4.0940 hc        1 MOL      0.066848
    150 H70         7.5060   -0.2150   -4.1990 hc        1 MOL      0.066848
    151 H71         5.8500   -0.1460   -3.6660 hc        1 MOL      0.066848
    152 N14         5.4040    0.9760   -0.7070 n         1 MOL     -0.171687
    153 C49         4.5780    1.8440    0.1370 c3        1 MOL     -0.095383
    154 C50         5.1820    1.8930    1.5350 c         1 MOL      0.503166
    155 O20         5.1260    3.0110    2.1030 o         1 MOL     -0.560039
    156 C51         3.1570    1.3190    0.2690 c3        1 MOL      0.009266
    157 C52         2.4420    1.0950   -1.0520 c3        1 MOL      0.176505
    158 C53         1.0390    0.5090   -0.8300 c         1 MOL      0.639926
    159 O21         0.2550    1.0680   -0.0670 o         1 MOL     -0.771919
    160 O22         0.6740   -0.5960   -1.3360 o         1 MOL     -0.771919
    161 H72         5.1320    0.0240   -0.9210 hn        1 MOL      0.241647
    162 H73         4.5610    2.8830   -0.2000 h1        1 MOL      0.077521
    163 H74         2.6320    1.9270    1.0070 hc        1 MOL      0.018111
    164 H75         3.3230    0.3410    0.7290 hc        1 MOL      0.018111
    165 H76         3.0930    0.4900   -1.6810 hc        1 MOL     -0.088983
    166 H77         2.3240    1.9790   -1.6790 hc        1 MOL     -0.088983
    167 N15         5.7920    0.8630    2.0690 n         1 MOL     -0.099926
    168 C54         6.4260    0.8650    3.3490 c3        1 MOL     -0.284829
    169 H78         7.1090    1.7120    3.4130 h1        1 MOL      0.111351
    170 H79         5.6700    0.9500    4.1290 h1        1 MOL      0.111351
    171 H80         6.9840   -0.0620    3.4810 h1        1 MOL      0.111351
    172 H81         5.6340   -0.0400    1.6570 hn        1 MOL      0.131059
    173 Ca1        -1.8180   -0.1940   -0.9290 Ca        1 MOL      1.789794
    174 O23        -1.5250   -1.7950   -3.0910 oh        1 MOL     -0.763057
    175 H82        -0.7880   -2.4010   -3.0360 ho        1 MOL      0.366930
    176 H83        -2.0640   -2.1410   -3.8030 ho        1 MOL      0.366930
@<TRIPOS>BOND
     1    1    2 1   
     2    1    4 1   
     3    1    5 1   
     4    1    6 1   
     5    2    3 2   
     6    2    7 1   
     7    7    8 1   
     8    7   15 1   
     9    8    9 1   
    10    8   11 1   
    11    8   16 1   
    12    9   10 2   
    13    9   19 1   
    14   11   12 1   
    15   11   17 1   
    16   11   18 1   
    17   12   13 1   
    18   12   14 1   
    19   19   20 1   
    20   19   28 1   
    21   20   21 1   
    22   20   23 1   
    23   20   29 1   
    24   21   22 2   
    25   21   41 1   
    26   23   24 1   
    27   23   30 1   
    28   23   31 1   
    29   24   25 1   
    30   24   32 1   
    31   24   33 1   
    32   25   26 1   
    33   25   34 1   
    34   25   35 1   
    35   26   27 1   
    36   26   36 1   
    37   26   37 1   
    38   27   38 1   
    39   27   39 1   
    40   27   40 1   
    41   41   42 1   
    42   41   49 1   
    43   42   43 1   
    44   42   45 1   
    45   42   50 1   
    46   43   44 2   
    47   43   53 1   
    48   45   46 1   
    49   45   51 1   
    50   45   52 1   
    51   46   47 1   
    52   46   48 1   
    53   53   54 1   
    54   53   57 1   
    55   54   55 1   
    56   54   58 1   
    57   54   59 1   
    58   55   56 2   
    59   55   60 1   
    60   60   61 1   
    61   60   68 1   
    62   61   62 1   
    63   61   64 1   
    64   61   69 1   
    65   62   63 2   
    66   62   74 1   
    67   64   65 1   
    68   64   70 1   
    69   64   71 1   
    70   65   66 1   
    71   65   67 2   
    72   66   72 1   
    73   66   73 1   
    74   74   75 1   
    75   74   78 1   
    76   75   76 1   
    77   75   79 1   
    78   75   80 1   
    79   76   77 2   
    80   76   81 1   
    81   81   82 1   
    82   81   93 1   
    83   82   83 1   
    84   82   85 1   
    85   82   94 1   
    86   83   84 2   
    87   83  102 1   
    88   85   86 1   
    89   85   95 1   
    90   85   96 1   
    91   86   87 ar  
    92   86   88 ar  
    93   87   89 ar  
    94   87   97 1   
    95   88   90 ar  
    96   88   98 1   
    97   89   91 ar  
    98   89   99 1   
    99   90   91 ar  
   100   90  100 1   
   101   91   92 1   
   102   92  101 1   
   103  102  103 1   
   104  102  110 1   
   105  103  104 1   
   106  103  106 1   
   107  103  111 1   
   108  104  105 2   
   109  104  121 1   
   110  106  107 1   
   111  106  108 1   
   112  106  112 1   
   113  107  109 1   
   114  107  113 1   
   115  107  114 1   
   116  108  115 1   
   117  108  116 1   
   118  108  117 1   
   119  109  118 1   
   120  109  119 1   
   121  109  120 1   
   122  121  122 1   
   123  121  127 1   
   124  122  123 1   
   125  122  125 1   
   126  122  128 1   
   127  123  124 2   
   128  123  132 1   
   129  125  126 1   
   130  125  129 1   
   131  125  130 1   
   132  126  131 1   
   133  132  133 1   
   134  132  137 1   
   135  133  134 1   
   136  133  136 1   
   137  133  138 1   
   138  134  135 2   
   139  134  142 1   
   140  136  139 1   
   141  136  140 1   
   142  136  141 1   
   143  142  143 1   
   144  142  147 1   
   145  143  144 1   
   146  143  146 1   
   147  143  148 1   
   148  144  145 2   
   149  144  152 1   
   150  146  149 1   
   151  146  150 1   
   152  146  151 1   
   153  152  153 1   
   154  152  161 1   
   155  153  154 1   
   156  153  156 1   
   157  153  162 1   
   158  154  155 2   
   159  154  167 1   
   160  156  157 1   
   161  156  163 1   
   162  156  164 1   
   163  157  158 1   
   164  157  165 1   
   165  157  166 1   
   166  158  159 1   
   167  158  160 1   
   168  167  168 1   
   169  167  172 1   
   170  168  169 1   
   171  168  170 1   
   172  168  171 1   
   173  174  175 1   
   174  174  176 1   
@<TRIPOS>SUBSTRUCTURE
     1 MOL         1 TEMP              0 ****  ****    0 ROOT
