@<TRIPOS>MOLECULE
MOL
  189   185     1     0     0
SMALL
resp


@<TRIPOS>ATOM
      1 C1         -0.7160    2.5450   -5.1150 c3        1 MOL     -0.230518
      2 C2         -0.0390    2.4400   -3.7360 c         1 MOL      0.571137
      3 O1         -0.5960    2.8440   -2.6920 o         1 MOL     -0.635353
      4 H1         -1.7620    2.8220   -4.9850 hc        1 MOL      0.071317
      5 H2         -0.2110    3.3060   -5.7110 hc        1 MOL      0.071317
      6 H3         -0.6550    1.5840   -5.6250 hc        1 MOL      0.071317
      7 N1          1.1760    1.8180   -3.6400 n         1 MOL     -0.566457
      8 C3          1.9880    1.6260   -2.4530 c3        1 MOL      0.500737
      9 C4          2.6530    2.9270   -1.9400 c         1 MOL      0.217421
     10 O2          3.7940    3.2030   -2.2640 o         1 MOL     -0.494123
     11 C5          3.0870    0.5940   -2.8260 c3        1 MOL     -0.338352
     12 C6          4.0100    0.2730   -1.6710 c         1 MOL      0.759921
     13 O3          3.6070    0.5220   -0.5330 o         1 MOL     -0.662832
     14 O4          5.0640   -0.3810   -1.7970 o         1 MOL     -0.662832
     15 H4          1.5950    1.5560   -4.5130 hn        1 MOL      0.295933
     16 H5          1.4210    1.1850   -1.6310 h1        1 MOL     -0.081726
     17 H6          3.6130    1.1050   -3.6330 hc        1 MOL      0.063113
     18 H7          2.6290   -0.2880   -3.2720 hc        1 MOL      0.063113
     19 N2          1.9910    3.7210   -1.2330 n         1 MOL     -0.136244
     20 C7          2.4200    5.0630   -0.7970 c3        1 MOL      0.040610
     21 C8          3.4790    5.0510    0.3270 c         1 MOL      0.477276
     22 O5          4.2970    5.9800    0.4390 o         1 MOL     -0.579396
     23 C9          1.2970    5.9570   -0.3730 c3        1 MOL     -0.357759
     24 C10         0.2230    6.2360   -1.4580 c3        1 MOL      0.327572
     25 C11         0.6360    7.1280   -2.6100 c3        1 MOL     -0.075471
     26 C12        -0.6540    7.8840   -3.1220 c3        1 MOL     -0.146290
     27 N3         -1.7000    6.8900   -3.5170 n4        1 MOL     -0.281647
     28 H8          1.0380    3.4470   -1.0470 hn        1 MOL      0.250135
     29 H9          3.0230    5.5970   -1.5270 h1        1 MOL      0.062649
     30 H10         1.6930    6.9500   -0.1640 hc        1 MOL      0.089521
     31 H11         0.9030    5.5420    0.5510 hc        1 MOL      0.089521
     32 H12        -0.6560    6.6450   -0.9590 hc        1 MOL     -0.055071
     33 H13        -0.1530    5.2730   -1.7960 hc        1 MOL     -0.055071
     34 H14         1.0180    6.4130   -3.3410 hc        1 MOL      0.058652
     35 H15         1.4810    7.7200   -2.2670 hc        1 MOL      0.058652
     36 H16        -0.3050    8.4830   -3.9630 hx        1 MOL      0.127542
     37 H17        -0.9440    8.5190   -2.2800 hx        1 MOL      0.127542
     38 H18        -1.9660    6.2130   -2.8120 hn        1 MOL      0.314305
     39 H19        -2.5280    7.3890   -3.8250 hn        1 MOL      0.314305
     40 H20        -1.4740    6.3910   -4.3680 hn        1 MOL      0.314305
     41 N4          3.6220    3.9640    1.1160 n         1 MOL     -0.141389
     42 C13         4.5680    3.8560    2.2420 c3        1 MOL     -0.069299
     43 C14         5.7430    2.9300    2.0040 c         1 MOL      0.464114
     44 O6          6.7390    3.0930    2.6810 o         1 MOL     -0.537719
     45 C15         3.8970    3.5650    3.5580 c3        1 MOL     -0.224370
     46 C16         2.8970    2.4010    3.4040 c         1 MOL      0.760044
     47 O7          2.2860    2.0270    4.4350 o         1 MOL     -0.703977
     48 O8          2.8520    1.7470    2.3350 o         1 MOL     -0.703977
     49 H21         2.9600    3.2120    0.9950 hn        1 MOL      0.115794
     50 H22         5.0220    4.8430    2.4110 h1        1 MOL      0.113891
     51 H23         3.3450    4.4700    3.8060 hc        1 MOL      0.063914
     52 H24         4.5920    3.4240    4.3870 hc        1 MOL      0.063914
     53 N5          5.7420    2.2390    0.8810 n         1 MOL      0.094774
     54 C17         6.9260    1.9200    0.1060 c3        1 MOL     -0.307185
     55 C18         7.5220    0.6210    0.6020 c         1 MOL      0.691859
     56 O9          8.6640    0.6780    1.1000 o         1 MOL     -0.591262
     57 H25         4.8880    2.1400    0.3480 hn        1 MOL      0.008860
     58 H26         7.6710    2.7040    0.2610 h1        1 MOL      0.111470
     59 H27         6.6320    1.7110   -0.9270 h1        1 MOL      0.111470
     60 N6          6.7960   -0.4480    0.5770 n         1 MOL     -0.502677
     61 C19         7.1060   -1.7020    1.3330 c3        1 MOL      0.124432
     62 C20         6.9150   -2.9400    0.4700 c         1 MOL      0.349575
     63 O10         7.1810   -4.0860    0.8830 o         1 MOL     -0.530534
     64 C21         6.1980   -1.6470    2.6170 c3        1 MOL     -0.318834
     65 C22         4.6880   -1.5720    2.3280 c         1 MOL      0.674283
     66 O11         4.1190   -2.2640    1.4170 o         1 MOL     -0.660123
     67 O12         3.9870   -0.7890    3.0360 o         1 MOL     -0.660123
     68 H28         5.9170   -0.4080    0.0910 hn        1 MOL      0.123880
     69 H29         8.1750   -1.7000    1.5840 h1        1 MOL      0.095333
     70 H30         6.4260   -0.7440    3.1920 hc        1 MOL      0.119584
     71 H31         6.4420   -2.5170    3.2180 hc        1 MOL      0.119584
     72 N7          6.3810   -2.8390   -0.7290 n         1 MOL     -0.118700
     73 C23         6.3210   -4.0660   -1.5330 c3        1 MOL     -0.162317
     74 C24         5.0490   -4.7750   -1.4110 c         1 MOL      0.682858
     75 O13         4.9870   -5.8870   -1.8710 o         1 MOL     -0.605648
     76 H32         6.2910   -1.9460   -1.1810 hn        1 MOL      0.261491
     77 H33         7.1650   -4.7490   -1.4940 h1        1 MOL      0.075265
     78 H34         6.2420   -3.6140   -2.5200 h1        1 MOL      0.075265
     79 N8          3.9800   -4.2740   -0.7610 n         1 MOL     -0.371796
     80 C25         2.6640   -4.8530   -0.5860 c3        1 MOL     -0.253663
     81 C26         1.5890   -3.7720   -0.7840 c         1 MOL      0.705919
     82 O14         1.8050   -2.6540   -0.3310 o         1 MOL     -0.604574
     83 C27         2.5360   -5.5300    0.7290 c3        1 MOL      0.522445
     84 C28         3.3720   -6.7930    0.7680 c3        1 MOL     -0.463320
     85 O15         3.0550   -4.7530    1.8110 oh        1 MOL     -0.642620
     86 H35         4.1550   -3.3650   -0.3550 hn        1 MOL      0.208621
     87 H36         2.4930   -5.6330   -1.3280 h1        1 MOL      0.108140
     88 H37         1.4510   -5.6550    0.8190 h1        1 MOL     -0.059430
     89 H38         3.5050   -4.0250    1.3600 ho        1 MOL      0.443137
     90 H39         2.8510   -7.5780    0.2150 hc        1 MOL      0.117365
     91 H40         4.3740   -6.6230    0.3700 hc        1 MOL      0.117365
     92 H41         3.4480   -7.1770    1.7850 hc        1 MOL      0.117365
     93 N9          0.4620   -4.1720   -1.4350 n         1 MOL     -0.592903
     94 C29        -0.6430   -3.2450   -1.7110 c3        1 MOL      0.149276
     95 C30        -1.8610   -3.6630   -0.9770 c         1 MOL      0.511503
     96 O16        -2.2950   -4.7940   -1.1730 o         1 MOL     -0.568514
     97 C31        -0.8690   -3.1260   -3.2740 c3        1 MOL      0.108933
     98 C32         0.4150   -3.0170   -4.0760 c3        1 MOL      0.051130
     99 C33        -1.7150   -1.8050   -3.3560 c3        1 MOL     -0.399243
    100 C34         0.0330   -3.0360   -5.5980 c3        1 MOL     -0.096454
    101 H42         0.4230   -5.0790   -1.8660 hn        1 MOL      0.305016
    102 H43        -0.3470   -2.3120   -1.2490 h1        1 MOL      0.018083
    103 H44        -1.3590   -4.0310   -3.6380 hc        1 MOL      0.009902
    104 H45         1.2050   -3.7510   -3.9270 hc        1 MOL      0.006454
    105 H46         0.8480   -2.0940   -3.6880 hc        1 MOL      0.006454
    106 H47        -2.0500   -1.4550   -4.3320 hc        1 MOL      0.078588
    107 H48        -2.6260   -1.8240   -2.7600 hc        1 MOL      0.078588
    108 H49        -1.1150   -0.9560   -3.0030 hc        1 MOL      0.078588
    109 H50        -0.1630   -4.0260   -6.0070 hc        1 MOL      0.024012
    110 H51        -0.8530   -2.4660   -5.8510 hc        1 MOL      0.024012
    111 H52         0.8560   -2.6630   -6.2070 hc        1 MOL      0.024012
    112 N10        -2.4400   -2.7780   -0.1620 n         1 MOL     -0.216341
    113 C35        -3.7360   -3.1190    0.6160 c3        1 MOL     -0.019417
    114 C36        -5.0790   -2.7670   -0.0930 c         1 MOL      0.326275
    115 O17        -5.0260   -1.8500   -0.9030 o         1 MOL     -0.352509
    116 C37        -3.6500   -2.5140    2.0650 c3        1 MOL      0.225568
    117 C38        -2.3060   -2.7870    2.7750 c3        1 MOL     -0.311644
    118 O18        -3.8970   -1.1800    2.0570 oh        1 MOL     -0.556226
    119 H53        -2.1730   -1.8090   -0.0760 hn        1 MOL      0.198295
    120 H54        -3.6920   -4.1880    0.8000 h1        1 MOL      0.058907
    121 H55        -4.4630   -3.0240    2.5870 h1        1 MOL     -0.006154
    122 H56        -3.3950   -0.7590    2.7640 ho        1 MOL      0.416164
    123 H57        -2.4500   -2.4960    3.8120 hc        1 MOL      0.090254
    124 H58        -1.9860   -3.8300    2.7700 hc        1 MOL      0.090254
    125 H59        -1.4990   -2.2020    2.3530 hc        1 MOL      0.090254
    126 N11        -6.2190   -3.1790    0.4310 n         1 MOL     -0.114014
    127 C39        -7.5420   -2.7560   -0.0350 c3        1 MOL     -0.331713
    128 C40        -7.8350   -1.2790    0.0730 c         1 MOL      0.531538
    129 O19        -8.5300   -0.6410   -0.7220 o         1 MOL     -0.528197
    130 C41        -8.6650   -3.4660    0.7500 c3        1 MOL      0.388672
    131 C42        -8.6730   -4.9500    0.4420 c3        1 MOL     -0.400712
    132 O20        -8.5820   -3.2360    2.0950 oh        1 MOL     -0.633066
    133 H60        -6.2310   -4.0360    0.9680 hn        1 MOL      0.240240
    134 H61        -7.6690   -2.9460   -1.1040 h1        1 MOL      0.163237
    135 H62        -9.5620   -2.9550    0.4200 h1        1 MOL      0.021708
    136 H63        -9.4650   -3.2400    2.4720 ho        1 MOL      0.417605
    137 H64        -7.8150   -5.4610    0.8730 hc        1 MOL      0.110167
    138 H65        -9.6020   -5.3530    0.8600 hc        1 MOL      0.110167
    139 H66        -8.7290   -5.1340   -0.6280 hc        1 MOL      0.110167
    140 N12        -7.1610   -0.6400    1.0010 n         1 MOL     -0.368859
    141 C43        -7.0750    0.8410    1.1570 c3        1 MOL      0.140974
    142 C44        -6.2600    1.5850    0.0730 c         1 MOL      0.242192
    143 O21        -6.7730    2.5400   -0.5060 o         1 MOL     -0.498557
    144 C45        -6.5250    1.0850    2.5670 c3        1 MOL     -0.219121
    145 C46        -6.5590    2.5230    3.0810 c3        1 MOL      0.070121
    146 C47        -6.2730    2.6700    4.5440 c3        1 MOL      0.168074
    147 C48        -6.4850    4.0130    5.2000 c3        1 MOL     -0.074310
    148 N13        -6.1970    3.9200    6.6850 n4        1 MOL     -0.253719
    149 H67        -6.5410   -1.2170    1.5510 hn        1 MOL      0.221300
    150 H68        -8.0530    1.3030    1.0270 h1        1 MOL      0.089427
    151 H69        -5.4440    0.9330    2.5600 hc        1 MOL      0.059697
    152 H70        -7.0830    0.4030    3.2030 hc        1 MOL      0.059697
    153 H71        -7.5510    2.9850    2.9770 hc        1 MOL     -0.003494
    154 H72        -5.8500    3.0470    2.4450 hc        1 MOL     -0.003494
    155 H73        -5.2500    2.3090    4.6460 hc        1 MOL     -0.022584
    156 H74        -6.8900    1.9170    5.0380 hc        1 MOL     -0.022584
    157 H75        -7.5450    4.2360    5.0460 hx        1 MOL      0.101385
    158 H76        -5.8250    4.7610    4.7570 hx        1 MOL      0.101385
    159 H77        -6.7110    3.2210    7.1930 hn        1 MOL      0.284489
    160 H78        -5.2210    3.8160    6.8910 hn        1 MOL      0.284489
    161 H79        -6.3500    4.8290    7.1010 hn        1 MOL      0.284489
    162 N14        -5.0950    1.0050   -0.3210 n         1 MOL      0.185793
    163 C49        -4.2320    1.6220   -1.3630 c3        1 MOL     -0.395820
    164 C50        -4.9530    1.5000   -2.7510 c         1 MOL      0.508285
    165 O22        -4.7570    2.3840   -3.5380 o         1 MOL     -0.554981
    166 C51        -2.8150    0.9920   -1.2440 c3        1 MOL      0.262939
    167 C52        -2.1140    1.2980    0.0880 c3        1 MOL     -0.222232
    168 C53        -0.6890    0.7290    0.2970 c         1 MOL      0.846533
    169 O23         0.2680    1.5170    0.5140 o         1 MOL     -0.730032
    170 O24        -0.4390   -0.4820    0.3810 o         1 MOL     -0.730032
    171 H80        -4.8150    0.1440    0.1340 hn        1 MOL     -0.023264
    172 H81        -4.0960    2.6830   -1.1740 h1        1 MOL      0.153218
    173 H82        -2.2760    1.5220   -2.0210 hc        1 MOL      0.010715
    174 H83        -2.8070   -0.0910   -1.4260 hc        1 MOL      0.010715
    175 H84        -2.7300    0.7070    0.7550 hc        1 MOL      0.008213
    176 H85        -2.1030    2.3620    0.3480 hc        1 MOL      0.008213
    177 N15        -5.9000    0.5650   -2.8800 n         1 MOL     -0.090932
    178 C54        -6.6730    0.3720   -4.1630 c3        1 MOL     -0.374799
    179 H86        -7.6910    0.7390   -4.0320 h1        1 MOL      0.137984
    180 H87        -6.1890    0.9260   -4.9670 h1        1 MOL      0.137984
    181 H88        -6.6990   -0.6880   -4.4170 h1        1 MOL      0.137984
    182 H89        -5.9230   -0.1620   -2.1840 hn        1 MOL      0.157906
    183 Ca1         2.0560   -0.4530    1.2720 Ca        1 MOL      1.717963
    184 O25         1.3910   -2.4630    2.8670 oh        1 MOL     -0.834350
    185 H90         0.9240   -2.4450    3.7020 ho        1 MOL      0.385298
    186 H91         1.7440   -3.3510    2.8110 ho        1 MOL      0.385298
    187 O26         0.2410    0.2010    3.4440 oh        1 MOL     -0.834350
    188 H92        -0.0310   -0.3670    4.1740 ho        1 MOL      0.385298
    189 H93         0.8020    0.8520    3.8520 ho        1 MOL      0.385298
@<TRIPOS>BOND
     1    1    2 1   
     2    1    4 1   
     3    1    5 1   
     4    1    6 1   
     5    2    3 2   
     6    2    7 1   
     7    7    8 1   
     8    7   15 1   
     9    8    9 1   
    10    8   11 1   
    11    8   16 1   
    12    9   10 2   
    13    9   19 1   
    14   11   12 1   
    15   11   17 1   
    16   11   18 1   
    17   12   13 1   
    18   12   14 1   
    19   19   20 1   
    20   19   28 1   
    21   20   21 1   
    22   20   23 1   
    23   20   29 1   
    24   21   22 2   
    25   21   41 1   
    26   23   24 1   
    27   23   30 1   
    28   23   31 1   
    29   24   25 1   
    30   24   32 1   
    31   24   33 1   
    32   25   26 1   
    33   25   34 1   
    34   25   35 1   
    35   26   27 1   
    36   26   36 1   
    37   26   37 1   
    38   27   38 1   
    39   27   39 1   
    40   27   40 1   
    41   41   42 1   
    42   41   49 1   
    43   42   43 1   
    44   42   45 1   
    45   42   50 1   
    46   43   44 2   
    47   43   53 1   
    48   45   46 1   
    49   45   51 1   
    50   45   52 1   
    51   46   47 1   
    52   46   48 1   
    53   53   54 1   
    54   53   57 1   
    55   54   55 1   
    56   54   58 1   
    57   54   59 1   
    58   55   56 2   
    59   55   60 1   
    60   60   61 1   
    61   60   68 1   
    62   61   62 1   
    63   61   64 1   
    64   61   69 1   
    65   62   63 2   
    66   62   72 1   
    67   64   65 1   
    68   64   70 1   
    69   64   71 1   
    70   65   66 1   
    71   65   67 1   
    72   72   73 1   
    73   72   76 1   
    74   73   74 1   
    75   73   77 1   
    76   73   78 1   
    77   74   75 2   
    78   74   79 1   
    79   79   80 1   
    80   79   86 1   
    81   80   81 1   
    82   80   83 1   
    83   80   87 1   
    84   81   82 2   
    85   81   93 1   
    86   83   84 1   
    87   83   85 1   
    88   83   88 1   
    89   84   90 1   
    90   84   91 1   
    91   84   92 1   
    92   85   89 1   
    93   93   94 1   
    94   93  101 1   
    95   94   95 1   
    96   94   97 1   
    97   94  102 1   
    98   95   96 2   
    99   95  112 1   
   100   97   98 1   
   101   97   99 1   
   102   97  103 1   
   103   98  100 1   
   104   98  104 1   
   105   98  105 1   
   106   99  106 1   
   107   99  107 1   
   108   99  108 1   
   109  100  109 1   
   110  100  110 1   
   111  100  111 1   
   112  112  113 1   
   113  112  119 1   
   114  113  114 1   
   115  113  116 1   
   116  113  120 1   
   117  114  115 2   
   118  114  126 1   
   119  116  117 1   
   120  116  118 1   
   121  116  121 1   
   122  117  123 1   
   123  117  124 1   
   124  117  125 1   
   125  118  122 1   
   126  126  127 1   
   127  126  133 1   
   128  127  128 1   
   129  127  130 1   
   130  127  134 1   
   131  128  129 2   
   132  128  140 1   
   133  130  131 1   
   134  130  132 1   
   135  130  135 1   
   136  131  137 1   
   137  131  138 1   
   138  131  139 1   
   139  132  136 1   
   140  140  141 1   
   141  140  149 1   
   142  141  142 1   
   143  141  144 1   
   144  141  150 1   
   145  142  143 2   
   146  142  162 1   
   147  144  145 1   
   148  144  151 1   
   149  144  152 1   
   150  145  146 1   
   151  145  153 1   
   152  145  154 1   
   153  146  147 1   
   154  146  155 1   
   155  146  156 1   
   156  147  148 1   
   157  147  157 1   
   158  147  158 1   
   159  148  159 1   
   160  148  160 1   
   161  148  161 1   
   162  162  163 1   
   163  162  171 1   
   164  163  164 1   
   165  163  166 1   
   166  163  172 1   
   167  164  165 2   
   168  164  177 1   
   169  166  167 1   
   170  166  173 1   
   171  166  174 1   
   172  167  168 1   
   173  167  175 1   
   174  167  176 1   
   175  168  169 1   
   176  168  170 1   
   177  177  178 1   
   178  177  182 1   
   179  178  179 1   
   180  178  180 1   
   181  178  181 1   
   182  184  185 1   
   183  184  186 1   
   184  187  188 1   
   185  187  189 1   
@<TRIPOS>SUBSTRUCTURE
     1 MOL         1 TEMP              0 ****  ****    0 ROOT
