@<TRIPOS>MOLECULE
MOL
  186   183     1     0     0
SMALL
resp


@<TRIPOS>ATOM
      1 C1          0.4880   -1.5530    6.2150 c3        1 MOL     -0.235839
      2 C2          1.1010   -1.8960    4.8320 c         1 MOL      0.786573
      3 O1          0.3240   -2.1520    3.9090 o         1 MOL     -0.602126
      4 H1          0.6390   -2.3890    6.8970 hc        1 MOL      0.053435
      5 H2          0.9740   -0.6650    6.6190 hc        1 MOL      0.053435
      6 H3         -0.5790   -1.3640    6.1030 hc        1 MOL      0.053435
      7 N1          2.3660   -1.6350    4.5250 n         1 MOL     -0.784656
      8 C3          2.9530   -1.6440    3.1520 c3        1 MOL      0.524390
      9 C4          3.1150   -3.1720    2.7310 c         1 MOL      0.397878
     10 O2          3.8950   -3.8710    3.4040 o         1 MOL     -0.597622
     11 C5          4.2280   -0.7820    3.0520 c3        1 MOL     -0.178669
     12 C6          4.7160   -0.6310    1.6690 c         1 MOL      0.653872
     13 O3          5.8750   -0.2090    1.4350 o         1 MOL     -0.597259
     14 O4          4.0240   -1.0730    0.6990 o         1 MOL     -0.597259
     15 H4          2.9390   -1.1380    5.1810 hn        1 MOL      0.331711
     16 H5          2.2540   -1.2000    2.4440 h1        1 MOL     -0.093747
     17 H6          4.9640   -1.1660    3.7560 hc        1 MOL      0.024140
     18 H7          3.9910    0.2020    3.4670 hc        1 MOL      0.024140
     19 N2          2.4970   -3.5870    1.6430 n         1 MOL     -0.076189
     20 C7          2.4020   -5.0190    1.2370 c3        1 MOL     -0.219870
     21 C8          3.1910   -5.2310   -0.1110 c         1 MOL      0.536406
     22 O5          3.2430   -6.3810   -0.5240 o         1 MOL     -0.571782
     23 C9          0.8930   -5.4760    1.1670 c3        1 MOL      0.376838
     24 C10         0.0440   -5.0810    2.3990 c3        1 MOL      0.099364
     25 C11         0.5510   -6.9210    0.8620 c3        1 MOL     -0.284769
     26 C12         0.5330   -5.5920    3.7760 c3        1 MOL     -0.342313
     27 H8          2.0480   -2.8930    1.0580 hn        1 MOL      0.140731
     28 H9          2.8260   -5.6940    1.9890 h1        1 MOL      0.095982
     29 H10         0.5350   -4.9180    0.2940 hc        1 MOL     -0.040991
     30 H11        -1.0070   -5.2460    2.1640 hc        1 MOL     -0.020802
     31 H12         0.0670   -3.9960    2.4880 hc        1 MOL     -0.020802
     32 H13         0.9850   -7.1370   -0.1160 hc        1 MOL      0.045740
     33 H14         0.8370   -7.6180    1.6560 hc        1 MOL      0.045740
     34 H15        -0.5150   -7.1020    0.6850 hc        1 MOL      0.045740
     35 H16         0.2710   -6.6460    3.8670 hc        1 MOL      0.066522
     36 H17         1.5880   -5.4130    3.9620 hc        1 MOL      0.066522
     37 H18        -0.0780   -4.9720    4.4390 hc        1 MOL      0.066522
     38 N3          3.7590   -4.1570   -0.7300 n         1 MOL     -0.107457
     39 C13         4.6900   -4.2850   -1.9160 c3        1 MOL     -0.215782
     40 C14         6.0200   -3.4660   -1.8220 c         1 MOL      0.593569
     41 O6          6.9600   -3.8440   -2.5060 o         1 MOL     -0.553928
     42 C15         3.9330   -3.8780   -3.2520 c3        1 MOL      0.031561
     43 C16         3.2770   -2.4710   -3.4010 c         1 MOL      0.651129
     44 O7          2.6260   -2.2050   -4.4750 o         1 MOL     -0.681906
     45 O8          3.4540   -1.6660   -2.4350 o         1 MOL     -0.681906
     46 H19         3.6120   -3.2690   -0.2780 hn        1 MOL     -0.095079
     47 H20         4.9660   -5.3310   -1.9450 h1        1 MOL      0.113586
     48 H21         3.0990   -4.5370   -3.5110 hc        1 MOL      0.009320
     49 H22         4.5760   -4.0330   -4.1160 hc        1 MOL      0.009320
     50 N4          6.0700   -2.4830   -0.9080 n         1 MOL     -0.413383
     51 C17         7.3780   -1.9970   -0.4870 c3        1 MOL     -0.036271
     52 C18         7.8150   -0.7090   -1.2000 c         1 MOL      0.569896
     53 O9          8.9480   -0.6900   -1.6640 o         1 MOL     -0.621677
     54 H23         5.2430   -2.2110   -0.4100 hn        1 MOL      0.344650
     55 H24         8.2190   -2.6690   -0.6770 h1        1 MOL      0.054766
     56 H25         7.3770   -1.8450    0.5870 h1        1 MOL      0.054766
     57 N5          6.9980    0.2850   -1.2140 n         1 MOL     -0.209340
     58 C19         7.2970    1.5660   -1.8140 c3        1 MOL      0.135332
     59 C20         7.3990    2.6360   -0.7440 c         1 MOL      0.454621
     60 O10         7.7490    3.7540   -1.0860 o         1 MOL     -0.551461
     61 C21         6.1770    1.8640   -2.8530 c3        1 MOL     -0.268427
     62 C22         4.7860    1.8740   -2.2880 c         1 MOL      0.836977
     63 O11         4.5060    1.7470   -1.0630 o         1 MOL     -0.765411
     64 O12         3.7710    1.9090   -3.0180 o         1 MOL     -0.765411
     65 H26         6.1230    0.2580   -0.7180 hn        1 MOL      0.007286
     66 H27         8.2970    1.6660   -2.2380 h1        1 MOL      0.056010
     67 H28         6.2010    1.0760   -3.6120 hc        1 MOL      0.075736
     68 H29         6.3190    2.8070   -3.3710 hc        1 MOL      0.075736
     69 N6          6.9890    2.2720    0.5200 n         1 MOL     -0.363974
     70 C23         6.7840    3.1140    1.7760 c3        1 MOL      0.065319
     71 C24         5.5070    3.9470    1.8230 c         1 MOL      0.323953
     72 O13         5.4450    5.0940    2.4160 o         1 MOL     -0.583612
     73 H30         6.8160    1.2820    0.6350 hn        1 MOL      0.188767
     74 H31         7.6330    3.7670    1.9490 h1        1 MOL      0.055813
     75 H32         6.8360    2.4840    2.6620 h1        1 MOL      0.055813
     76 N7          4.5340    3.6160    0.9810 n         1 MOL     -0.089132
     77 C25         3.1970    4.2620    1.0980 c3        1 MOL      0.047777
     78 C26         2.0670    3.1840    1.2960 c         1 MOL      0.580907
     79 O14         2.4300    1.9910    1.1880 o         1 MOL     -0.688518
     80 C27         2.9860    4.9180   -0.2960 c3        1 MOL      0.113213
     81 C28         4.0430    6.0380   -0.5960 c3        1 MOL     -0.457821
     82 C29         3.4640    7.2190   -1.3480 c         1 MOL      0.771036
     83 N8          2.8430    7.0170   -2.5530 n         1 MOL     -0.886584
     84 O15         3.5070    8.3830   -1.0080 o         1 MOL     -0.583893
     85 H33         4.6220    2.7800    0.4130 hn        1 MOL      0.211724
     86 H34         3.0430    4.9780    1.9060 h1        1 MOL      0.036853
     87 H35         2.0050    5.3970   -0.3080 hc        1 MOL     -0.014126
     88 H36         2.9840    4.1620   -1.0800 hc        1 MOL     -0.014126
     89 H37         4.7690    5.5730   -1.2580 hc        1 MOL      0.148327
     90 H38         4.4670    6.5470    0.2780 hc        1 MOL      0.148327
     91 H39         2.8120    6.0770   -2.9200 hn        1 MOL      0.371204
     92 H40         2.3040    7.7560   -2.9530 hn        1 MOL      0.371204
     93 N9          0.8790    3.6000    1.5810 n         1 MOL     -0.420667
     94 C30        -0.3060    2.7250    1.7430 c3        1 MOL      0.032170
     95 C31        -1.2470    3.2950    0.6680 c         1 MOL      0.346035
     96 O16        -1.7050    4.4750    0.6110 o         1 MOL     -0.583928
     97 C32        -0.9970    2.7480    3.1170 c3        1 MOL      0.311488
     98 C33        -2.1810    1.7750    3.2200 c3        1 MOL     -0.377898
     99 C34         0.0540    2.3730    4.1760 c3        1 MOL     -0.377898
    100 H41         0.7320    4.6020    1.6330 hn        1 MOL      0.275617
    101 H42        -0.0810    1.6880    1.4950 h1        1 MOL      0.124698
    102 H43        -1.4160    3.7350    3.3410 hc        1 MOL     -0.048895
    103 H44        -2.6050    1.8050    4.2180 hc        1 MOL      0.086883
    104 H45        -2.9200    1.9700    2.4410 hc        1 MOL      0.086883
    105 H46        -1.7510    0.7740    3.1540 hc        1 MOL      0.086883
    106 H47         0.4220    1.3720    3.9420 hc        1 MOL      0.086883
    107 H48         0.8830    3.0690    4.0500 hc        1 MOL      0.086883
    108 H49        -0.3400    2.3260    5.1900 hc        1 MOL      0.086883
    109 N10        -1.7080    2.5010   -0.2360 n         1 MOL     -0.087916
    110 C35        -2.8880    2.7980   -1.1000 c3        1 MOL      0.102232
    111 C36        -4.2600    2.3260   -0.5720 c         1 MOL      0.445904
    112 O17        -4.2700    1.5740    0.3660 o         1 MOL     -0.282400
    113 C37        -2.5130    2.1230   -2.4660 c3        1 MOL     -0.395337
    114 C38        -2.8370    0.6460   -2.5300 c         1 MOL      0.809628
    115 N11        -1.9110   -0.1610   -2.2510 n         1 MOL     -0.913097
    116 O18        -3.8900    0.3100   -2.9030 o         1 MOL     -0.595488
    117 H50        -1.3520    1.5560   -0.2650 hn        1 MOL      0.053588
    118 H51        -2.9290    3.8660   -1.2870 h1        1 MOL      0.076360
    119 H52        -1.4560    2.2290   -2.6830 hc        1 MOL      0.097160
    120 H53        -3.1030    2.5910   -3.2620 hc        1 MOL      0.097160
    121 H54        -1.0010    0.2610   -2.1110 hn        1 MOL      0.455217
    122 H55        -2.0510   -1.1590   -2.2340 hn        1 MOL      0.455217
    123 N12        -5.4180    2.4890   -1.2380 n         1 MOL     -0.737000
    124 C39        -6.7130    1.9830   -0.6820 c3        1 MOL      0.411847
    125 C40        -6.9370    0.5330   -0.5920 c         1 MOL      0.440961
    126 O19        -7.6900    0.1020    0.3120 o         1 MOL     -0.539841
    127 C41        -7.9020    2.6600   -1.4650 c3        1 MOL     -0.039533
    128 C42        -9.3240    2.6070   -0.7410 ca        1 MOL     -0.193165
    129 C43        -9.4480    2.9770    0.6280 ca        1 MOL     -0.007711
    130 C44       -10.3540    2.0190   -1.3470 ca        1 MOL     -0.007711
    131 C45       -10.6460    2.7280    1.2920 ca        1 MOL     -0.330163
    132 C46       -11.5390    1.6140   -0.7070 ca        1 MOL     -0.330163
    133 C47       -11.6440    1.9650    0.6450 ca        1 MOL      0.415296
    134 O20       -12.7550    1.7620    1.3960 oh        1 MOL     -0.534739
    135 H56        -5.3740    2.9620   -2.1270 hn        1 MOL      0.353431
    136 H57        -6.8510    2.4130    0.3100 h1        1 MOL      0.037577
    137 H58        -7.9520    2.2170   -2.4630 hc        1 MOL      0.028075
    138 H59        -7.5790    3.6750   -1.6970 hc        1 MOL      0.028075
    139 H60        -8.6640    3.4990    1.1630 ha        1 MOL      0.097415
    140 H61       -10.3430    1.8410   -2.4150 ha        1 MOL      0.097415
    141 H62       -10.7280    3.0050    2.3340 ha        1 MOL      0.155525
    142 H63       -12.3410    1.1120   -1.2250 ha        1 MOL      0.155525
    143 H64       -13.3090    1.0520    1.0710 ho        1 MOL      0.375215
    144 N13        -6.4190   -0.3170   -1.4300 n         1 MOL     -0.423663
    145 C48        -6.4390   -1.7370   -1.3540 c3        1 MOL      0.234303
    146 C49        -5.5640   -2.2550   -0.2440 c         1 MOL      0.160855
    147 O21        -5.8770   -3.2450    0.4050 o         1 MOL     -0.495434
    148 C50        -6.1060   -2.3710   -2.6710 c3        1 MOL      0.156003
    149 C51        -6.1100   -3.9210   -2.7920 c3        1 MOL     -0.324775
    150 C52        -5.8790   -4.4510   -4.1960 c         1 MOL      0.742916
    151 O22        -5.1420   -5.4840   -4.3580 o         1 MOL     -0.745063
    152 O23        -6.3940   -3.9550   -5.2440 o         1 MOL     -0.745063
    153 H65        -5.8900    0.1340   -2.1600 hn        1 MOL      0.226849
    154 H66        -7.4670   -2.0590   -1.1820 h1        1 MOL      0.054129
    155 H67        -5.1440   -1.9850   -3.0000 hc        1 MOL     -0.042304
    156 H68        -6.8970   -2.0160   -3.3360 hc        1 MOL     -0.042304
    157 H69        -7.0690   -4.2110   -2.3560 hc        1 MOL      0.054410
    158 H70        -5.2810   -4.2760   -2.1950 hc        1 MOL      0.054410
    159 N14        -4.5400   -1.4770    0.1780 n         1 MOL      0.115974
    160 C53        -3.7430   -1.8320    1.3270 c3        1 MOL     -0.129170
    161 C54        -4.5150   -1.3200    2.5260 c         1 MOL      0.459218
    162 O24        -4.4350   -1.9250    3.5780 o         1 MOL     -0.591319
    163 C55        -2.4020   -1.1590    1.2360 c3        1 MOL      0.051797
    164 C56        -1.4270   -2.0500    0.4140 c3        1 MOL      0.013218
    165 C57        -0.0470   -1.3530    0.2170 c         1 MOL      0.526343
    166 O25         0.9430   -2.0330   -0.1660 o         1 MOL     -0.622220
    167 O26        -0.0510   -0.1430    0.0110 o         1 MOL     -0.622220
    168 H71        -4.4200   -0.6220   -0.3460 hn        1 MOL     -0.047059
    169 H72        -3.6240   -2.8930    1.5100 h1        1 MOL      0.128423
    170 H73        -1.9390   -1.1520    2.2280 hc        1 MOL      0.055764
    171 H74        -2.4710   -0.1270    0.9010 hc        1 MOL      0.055764
    172 H75        -1.8160   -2.2680   -0.5780 hc        1 MOL     -0.016260
    173 H76        -1.2240   -2.9650    0.9660 hc        1 MOL     -0.016260
    174 N15        -5.2330   -0.2170    2.4800 n         1 MOL     -0.016569
    175 C58        -6.0450    0.3490    3.5750 c3        1 MOL     -0.227809
    176 H77        -6.0010   -0.3130    4.4390 h1        1 MOL      0.080455
    177 H78        -5.6550    1.3290    3.8490 h1        1 MOL      0.080455
    178 H79        -7.0800    0.4490    3.2470 h1        1 MOL      0.080455
    179 H80        -5.2030    0.3550    1.6450 hn        1 MOL      0.010383
    180 Ca1         2.5120    0.1420   -0.9310 Ca        1 MOL      1.696351
    181 O27         1.1820    2.2490   -1.9070 oh        1 MOL     -0.817660
    182 H81         1.4510    3.1590   -2.0620 ho        1 MOL      0.392015
    183 H82         1.1960    1.8450   -2.7720 ho        1 MOL      0.392015
    184 O28         0.9800   -0.2230   -3.3830 oh        1 MOL     -0.817660
    185 H83         0.3860    0.0980   -4.0630 ho        1 MOL      0.392015
    186 H84         1.3360   -1.0390   -3.7410 ho        1 MOL      0.392015
@<TRIPOS>BOND
     1    1    2 1   
     2    1    4 1   
     3    1    5 1   
     4    1    6 1   
     5    2    3 2   
     6    2    7 1   
     7    7    8 1   
     8    7   15 1   
     9    8    9 1   
    10    8   11 1   
    11    8   16 1   
    12    9   10 2   
    13    9   19 1   
    14   11   12 1   
    15   11   17 1   
    16   11   18 1   
    17   12   13 1   
    18   12   14 1   
    19   19   20 1   
    20   19   27 1   
    21   20   21 1   
    22   20   23 1   
    23   20   28 1   
    24   21   22 2   
    25   21   38 1   
    26   23   24 1   
    27   23   25 1   
    28   23   29 1   
    29   24   26 1   
    30   24   30 1   
    31   24   31 1   
    32   25   32 1   
    33   25   33 1   
    34   25   34 1   
    35   26   35 1   
    36   26   36 1   
    37   26   37 1   
    38   38   39 1   
    39   38   46 1   
    40   39   40 1   
    41   39   42 1   
    42   39   47 1   
    43   40   41 2   
    44   40   50 1   
    45   42   43 1   
    46   42   48 1   
    47   42   49 1   
    48   43   44 1   
    49   43   45 1   
    50   50   51 1   
    51   50   54 1   
    52   51   52 1   
    53   51   55 1   
    54   51   56 1   
    55   52   53 2   
    56   52   57 1   
    57   57   58 1   
    58   57   65 1   
    59   58   59 1   
    60   58   61 1   
    61   58   66 1   
    62   59   60 2   
    63   59   69 1   
    64   61   62 1   
    65   61   67 1   
    66   61   68 1   
    67   62   63 1   
    68   62   64 1   
    69   69   70 1   
    70   69   73 1   
    71   70   71 1   
    72   70   74 1   
    73   70   75 1   
    74   71   72 2   
    75   71   76 1   
    76   76   77 1   
    77   76   85 1   
    78   77   78 1   
    79   77   80 1   
    80   77   86 1   
    81   78   79 2   
    82   78   93 1   
    83   80   81 1   
    84   80   87 1   
    85   80   88 1   
    86   81   82 1   
    87   81   89 1   
    88   81   90 1   
    89   82   83 1   
    90   82   84 2   
    91   83   91 1   
    92   83   92 1   
    93   93   94 1   
    94   93  100 1   
    95   94   95 1   
    96   94   97 1   
    97   94  101 1   
    98   95   96 2   
    99   95  109 1   
   100   97   98 1   
   101   97   99 1   
   102   97  102 1   
   103   98  103 1   
   104   98  104 1   
   105   98  105 1   
   106   99  106 1   
   107   99  107 1   
   108   99  108 1   
   109  109  110 1   
   110  109  117 1   
   111  110  111 1   
   112  110  113 1   
   113  110  118 1   
   114  111  112 2   
   115  111  123 1   
   116  113  114 1   
   117  113  119 1   
   118  113  120 1   
   119  114  115 1   
   120  114  116 2   
   121  115  121 1   
   122  115  122 1   
   123  123  124 1   
   124  123  135 1   
   125  124  125 1   
   126  124  127 1   
   127  124  136 1   
   128  125  126 2   
   129  125  144 1   
   130  127  128 1   
   131  127  137 1   
   132  127  138 1   
   133  128  129 ar  
   134  128  130 ar  
   135  129  131 ar  
   136  129  139 1   
   137  130  132 ar  
   138  130  140 1   
   139  131  133 ar  
   140  131  141 1   
   141  132  133 ar  
   142  132  142 1   
   143  133  134 1   
   144  134  143 1   
   145  144  145 1   
   146  144  153 1   
   147  145  146 1   
   148  145  148 1   
   149  145  154 1   
   150  146  147 2   
   151  146  159 1   
   152  148  149 1   
   153  148  155 1   
   154  148  156 1   
   155  149  150 1   
   156  149  157 1   
   157  149  158 1   
   158  150  151 1   
   159  150  152 1   
   160  159  160 1   
   161  159  168 1   
   162  160  161 1   
   163  160  163 1   
   164  160  169 1   
   165  161  162 2   
   166  161  174 1   
   167  163  164 1   
   168  163  170 1   
   169  163  171 1   
   170  164  165 1   
   171  164  172 1   
   172  164  173 1   
   173  165  166 1   
   174  165  167 1   
   175  174  175 1   
   176  174  179 1   
   177  175  176 1   
   178  175  177 1   
   179  175  178 1   
   180  181  182 1   
   181  181  183 1   
   182  184  185 1   
   183  184  186 1   
@<TRIPOS>SUBSTRUCTURE
     1 MOL         1 TEMP              0 ****  ****    0 ROOT
