@<TRIPOS>MOLECULE
MOL
  175   173     1     0     0
SMALL
resp


@<TRIPOS>ATOM
      1 C1          0.4000    4.2300    5.2970 c3        1 MOL     -0.360852
      2 C2         -0.2450    4.4240    3.9040 c         1 MOL      0.684129
      3 O1          0.3780    4.8400    2.9460 o         1 MOL     -0.533273
      4 H1         -0.3810    4.1970    6.0570 hc        1 MOL      0.086832
      5 H2          0.9600    3.2960    5.3120 hc        1 MOL      0.086832
      6 H3          1.0720    5.0620    5.5060 hc        1 MOL      0.086832
      7 N1         -1.5410    4.1100    3.7910 n         1 MOL     -0.578087
      8 C3         -2.2010    3.8840    2.4340 c3        1 MOL      0.065161
      9 C4         -2.2900    5.0710    1.4260 c         1 MOL      0.632832
     10 O2         -2.3520    6.2150    1.7970 o         1 MOL     -0.530640
     11 C5         -3.6210    3.3980    2.7750 c3        1 MOL     -0.225125
     12 C6         -4.3880    2.9590    1.5850 c         1 MOL      0.639930
     13 O3         -3.8420    2.1540    0.7580 o         1 MOL     -0.608035
     14 O4         -5.5640    3.3900    1.4470 o         1 MOL     -0.608035
     15 H4         -1.9760    3.7300    4.6180 hn        1 MOL      0.311453
     16 H5         -1.7370    3.0210    1.9510 h1        1 MOL      0.032241
     17 H6         -4.0880    4.2700    3.2260 hc        1 MOL      0.051823
     18 H7         -3.6500    2.6070    3.5280 hc        1 MOL      0.051823
     19 N2         -2.4190    4.7610    0.1090 n         1 MOL     -0.529059
     20 C7         -2.7320    5.6440   -0.9130 c3        1 MOL      0.438019
     21 C8         -3.5470    4.9720   -2.0390 c         1 MOL      0.298017
     22 O5         -3.6810    5.6250   -3.1020 o         1 MOL     -0.550730
     23 C9         -1.5120    6.3830   -1.4180 c3        1 MOL     -0.371856
     24 H8         -2.6110    3.7810   -0.0580 hn        1 MOL      0.270871
     25 H9         -3.3290    6.4260   -0.4510 h1        1 MOL     -0.021908
     26 H10        -0.9880    5.7150   -2.1000 hc        1 MOL      0.091558
     27 H11        -1.7180    7.2970   -1.9810 hc        1 MOL      0.091558
     28 H12        -0.8830    6.7340   -0.6030 hc        1 MOL      0.091558
     29 N3         -4.1160    3.7820   -1.8980 n         1 MOL     -0.070684
     30 C10        -4.8960    3.1290   -2.8930 c3        1 MOL      0.087876
     31 C11        -6.1070    2.3880   -2.3870 c         1 MOL      0.266142
     32 O6         -6.8940    1.7900   -3.1460 o         1 MOL     -0.553931
     33 C12        -4.0690    2.1390   -3.6770 c3        1 MOL     -0.297241
     34 C13        -3.2280    1.2390   -2.8360 c         1 MOL      0.765089
     35 O7         -1.9990    1.1270   -3.0020 o         1 MOL     -0.711945
     36 O8         -3.7850    0.4730   -2.0550 o         1 MOL     -0.711945
     37 H13        -4.0770    3.3880   -0.9630 hn        1 MOL      0.018167
     38 H14        -5.3130    3.9610   -3.4620 h1        1 MOL      0.077793
     39 H15        -3.5330    2.8270   -4.3400 hc        1 MOL      0.083146
     40 H16        -4.7080    1.5690   -4.3480 hc        1 MOL      0.083146
     41 N4         -6.1540    2.0290   -1.1490 n         1 MOL      0.007699
     42 C14        -7.2980    1.2580   -0.5740 c3        1 MOL     -0.188226
     43 C15        -7.3750   -0.2400   -0.9350 c         1 MOL      0.483246
     44 O9         -8.4820   -0.8130   -0.8850 o         1 MOL     -0.587149
     45 H17        -5.5090    2.4870   -0.5160 hn        1 MOL      0.071953
     46 H18        -8.2230    1.7300   -0.9090 h1        1 MOL      0.096252
     47 H19        -7.1880    1.4050    0.4980 h1        1 MOL      0.096252
     48 N5         -6.2490   -0.9210   -1.3180 n         1 MOL     -0.112324
     49 C16        -6.1630   -2.3280   -1.7790 c3        1 MOL     -0.229957
     50 C17        -6.2270   -3.4100   -0.7030 c         1 MOL      0.557590
     51 O10        -6.4300   -4.5950   -0.9380 o         1 MOL     -0.544653
     52 C18        -5.0970   -2.5330   -2.8560 c3        1 MOL     -0.100883
     53 C19        -3.6710   -2.4990   -2.3370 c         1 MOL      0.405492
     54 N6         -2.6620   -2.2780   -3.1740 n         1 MOL     -0.633026
     55 O11        -3.3800   -2.7090   -1.1610 o         1 MOL     -0.194385
     56 H20        -5.4340   -0.3300   -1.2730 hn        1 MOL      0.214963
     57 H21        -7.1170   -2.5010   -2.2860 h1        1 MOL      0.139764
     58 H22        -5.1740   -1.7340   -3.5970 hc        1 MOL      0.070302
     59 H23        -5.2660   -3.4770   -3.3880 hc        1 MOL      0.070302
     60 H24        -2.7180   -2.2580   -4.1890 hn        1 MOL      0.330936
     61 H25        -1.7750   -2.0050   -2.7940 hn        1 MOL      0.330936
     62 N7         -6.1140   -2.9290    0.5430 n         1 MOL     -0.271273
     63 C20        -6.0500   -3.7580    1.7610 c3        1 MOL     -0.134870
     64 C21        -4.8950   -4.6750    1.8720 c         1 MOL      0.453116
     65 O12        -4.8340   -5.5630    2.7530 o         1 MOL     -0.560571
     66 H26        -5.7820   -1.9760    0.6120 hn        1 MOL      0.144659
     67 H27        -7.0000   -4.2420    2.0160 h1        1 MOL      0.091371
     68 H28        -5.8420   -3.1100    2.6120 h1        1 MOL      0.091371
     69 N8         -3.7920   -4.3560    1.0820 n         1 MOL      0.106609
     70 C22        -2.4050   -4.7280    1.4310 c3        1 MOL     -0.553436
     71 C23        -1.4430   -3.5550    1.5330 c         1 MOL      0.852316
     72 O13        -1.7230   -2.4990    0.9390 o         1 MOL     -0.741514
     73 C24        -1.9940   -5.8350    0.3660 c3        1 MOL      0.693798
     74 C25        -2.9800   -6.9530    0.1750 c3        1 MOL     -0.375079
     75 O14        -1.8530   -5.1780   -0.8480 oh        1 MOL     -0.597639
     76 H29        -3.9580   -3.7630    0.2960 hn        1 MOL     -0.014016
     77 H30        -2.3640   -5.1500    2.4400 h1        1 MOL      0.128350
     78 H31        -1.0080   -6.2170    0.6350 h1        1 MOL     -0.075290
     79 H32        -2.3260   -4.3600   -0.6930 ho        1 MOL      0.261169
     80 H33        -3.0840   -7.3310    1.1980 hc        1 MOL      0.069647
     81 H34        -3.9140   -6.6390   -0.2850 hc        1 MOL      0.069647
     82 H35        -2.3880   -7.6870   -0.3740 hc        1 MOL      0.069647
     83 N9         -0.2690   -3.7920    2.1940 n         1 MOL     -0.722403
     84 C26         0.8500   -2.8380    2.0300 c3        1 MOL      0.047894
     85 C27         1.6090   -3.1090    0.7260 c         1 MOL      0.557972
     86 O15         2.2330   -4.1590    0.4980 o         1 MOL     -0.607674
     87 C28         1.6280   -2.7790    3.3240 c3        1 MOL      0.208504
     88 C29         0.7870   -2.6490    4.6180 c3        1 MOL      0.299928
     89 C30         2.7450   -1.7600    3.2840 c3        1 MOL     -0.302779
     90 C31         1.6010   -2.4160    5.9660 c3        1 MOL     -0.351493
     91 H36        -0.0060   -4.7300    2.4710 hn        1 MOL      0.346323
     92 H37         0.3800   -1.8640    1.8950 h1        1 MOL      0.106869
     93 H38         2.0710   -3.7750    3.4400 hc        1 MOL     -0.043966
     94 H39         0.2680   -3.5980    4.7870 hc        1 MOL     -0.086583
     95 H40         0.0160   -1.8830    4.5140 hc        1 MOL     -0.086583
     96 H41         3.4760   -1.9080    4.0730 hc        1 MOL      0.032985
     97 H42         3.2220   -1.7620    2.3010 hc        1 MOL      0.032985
     98 H43         2.3510   -0.7430    3.3620 hc        1 MOL      0.032985
     99 H44         2.4470   -3.0990    5.8650 hc        1 MOL      0.081739
    100 H45         1.9240   -1.3770    6.0140 hc        1 MOL      0.081739
    101 H46         1.0120   -2.7370    6.8250 hc        1 MOL      0.081739
    102 N10         1.8370   -2.0470    0.0080 n         1 MOL     -0.116175
    103 C32         2.6340   -1.9370   -1.1750 c3        1 MOL      0.000795
    104 C33         4.0550   -1.4360   -0.8310 c         1 MOL      0.416569
    105 O16         4.1960   -0.6330    0.0480 o         1 MOL     -0.206842
    106 C34         1.9240   -1.1570   -2.2350 c3        1 MOL     -0.262396
    107 C35         0.5810   -1.7920   -2.5580 c         1 MOL      0.752291
    108 O17        -0.3900   -1.4910   -1.8280 o         1 MOL     -0.684361
    109 O18         0.4350   -2.4780   -3.5920 o         1 MOL     -0.684361
    110 H47         1.3890   -1.1920    0.3320 hn        1 MOL      0.087405
    111 H48         2.7490   -2.9260   -1.6300 h1        1 MOL      0.053795
    112 H49         2.4890   -0.9500   -3.1440 hc        1 MOL      0.067516
    113 H50         1.6600   -0.2370   -1.7230 hc        1 MOL      0.067516
    114 N11         5.1150   -1.8770   -1.5690 n         1 MOL     -0.544672
    115 C36         6.5230   -1.4940   -1.2930 c3        1 MOL      0.094181
    116 C37         6.8020   -0.0090   -0.9650 c         1 MOL      0.435190
    117 O19         7.3580    0.1860    0.0850 o         1 MOL     -0.492161
    118 C38         7.3840   -2.0230   -2.4190 c3        1 MOL     -0.128218
    119 C39         8.9220   -1.8000   -2.1970 ca        1 MOL      0.110632
    120 C40         9.6480   -2.7860   -1.3640 ca        1 MOL     -0.258821
    121 C41         9.5860   -0.6620   -2.6680 ca        1 MOL     -0.258821
    122 C42        10.9950   -2.5070   -1.0610 ca        1 MOL      0.001826
    123 C43        10.9060   -0.4440   -2.3200 ca        1 MOL      0.001826
    124 C44        11.6260   -1.3970   -1.6130 ca        1 MOL     -0.193376
    125 H51         4.9870   -2.4450   -2.3930 hn        1 MOL      0.315095
    126 H52         6.7780   -2.1130   -0.4270 h1        1 MOL      0.099002
    127 H53         7.0600   -1.5550   -3.3440 hc        1 MOL      0.060226
    128 H54         7.3510   -3.0940   -2.5840 hc        1 MOL      0.060226
    129 H55         9.1760   -3.7090   -1.0540 ha        1 MOL      0.146835
    130 H56         8.9990    0.1130   -3.1330 ha        1 MOL      0.146835
    131 H57        11.5590   -3.2820   -0.5780 ha        1 MOL      0.083168
    132 H58        11.4580    0.4120   -2.6870 ha        1 MOL      0.083168
    133 H59        12.6990   -1.2860   -1.5840 ha        1 MOL      0.108474
    134 N12         6.3890    1.0070   -1.7360 n         1 MOL      0.014882
    135 C45         6.6360    2.3750   -1.3070 c3        1 MOL     -0.222519
    136 C46         5.8080    2.8270   -0.0580 c         1 MOL      0.556236
    137 O20         6.2840    3.7260    0.6340 o         1 MOL     -0.547730
    138 C47         6.3970    3.1960   -2.6080 c3        1 MOL     -0.032511
    139 C48         5.3180    2.4880   -3.4070 c3        1 MOL      0.063767
    140 C49         5.6200    1.0110   -3.0060 c3        1 MOL     -0.179167
    141 H60         7.6990    2.4300   -1.0910 h1        1 MOL      0.113506
    142 H61         6.1800    4.2680   -2.5030 hc        1 MOL      0.036355
    143 H62         7.3060    3.1530   -3.2100 hc        1 MOL      0.036355
    144 H63         4.3470    2.8040   -3.0020 hc        1 MOL      0.019914
    145 H64         5.3520    2.6510   -4.4830 hc        1 MOL      0.019914
    146 H65         4.7190    0.4110   -2.8960 h1        1 MOL      0.062290
    147 H66         6.2400    0.5780   -3.7880 h1        1 MOL      0.062290
    148 N13         4.7250    2.1500    0.3800 n         1 MOL     -0.319368
    149 C50         4.1490    2.3140    1.7010 c3        1 MOL     -0.067919
    150 C51         4.8870    1.5510    2.8420 c         1 MOL      0.502414
    151 O21         4.8500    2.0420    3.9340 o         1 MOL     -0.572964
    152 C52         2.7020    1.7380    1.6250 c3        1 MOL      0.078495
    153 C53         1.8220    2.2350    0.5240 c3        1 MOL     -0.344478
    154 C54         0.4910    1.5120    0.4740 c         1 MOL      0.878928
    155 O22        -0.4400    2.0110   -0.1880 o         1 MOL     -0.805797
    156 O23         0.3590    0.3570    0.9070 o         1 MOL     -0.805797
    157 H67         4.4560    1.2990   -0.1100 hn        1 MOL      0.206025
    158 H68         4.0620    3.3880    1.8960 h1        1 MOL      0.115925
    159 H69         2.2500    2.0890    2.5500 hc        1 MOL      0.016421
    160 H70         2.7170    0.6420    1.6190 hc        1 MOL      0.016421
    161 H71         2.3370    1.8630   -0.3640 hc        1 MOL      0.101788
    162 H72         1.6760    3.3090    0.5830 hc        1 MOL      0.101788
    163 N14         5.6250    0.4440    2.5580 n         1 MOL      0.033546
    164 C55         6.5640   -0.2510    3.4650 c3        1 MOL     -0.268013
    165 H73         6.1040   -0.3650    4.4460 h1        1 MOL      0.097587
    166 H74         6.8010   -1.2340    3.0590 h1        1 MOL      0.097587
    167 H75         7.4790    0.3340    3.5600 h1        1 MOL      0.097587
    168 H76         5.6630    0.3140    1.5560 hn        1 MOL     -0.049822
    169 Ca1        -1.9950    0.0020   -0.2410 Ca        1 MOL      1.695644
    170 O24        -4.6360   -0.4240    0.9480 oh        1 MOL     -0.824474
    171 H77        -4.4310    0.5090    0.8590 ho        1 MOL      0.411061
    172 H78        -5.1380   -0.4910    1.7550 ho        1 MOL      0.411061
    173 O25        -2.1260    0.3610    2.5440 oh        1 MOL     -0.824474
    174 H79        -2.3320    0.5360    3.4670 ho        1 MOL      0.411061
    175 H80        -1.1840    0.2180    2.5410 ho        1 MOL      0.411061
@<TRIPOS>BOND
     1    1    2 1   
     2    1    4 1   
     3    1    5 1   
     4    1    6 1   
     5    2    3 2   
     6    2    7 1   
     7    7    8 1   
     8    7   15 1   
     9    8    9 1   
    10    8   11 1   
    11    8   16 1   
    12    9   10 2   
    13    9   19 1   
    14   11   12 1   
    15   11   17 1   
    16   11   18 1   
    17   12   13 1   
    18   12   14 1   
    19   19   20 1   
    20   19   24 1   
    21   20   21 1   
    22   20   23 1   
    23   20   25 1   
    24   21   22 2   
    25   21   29 1   
    26   23   26 1   
    27   23   27 1   
    28   23   28 1   
    29   29   30 1   
    30   29   37 1   
    31   30   31 1   
    32   30   33 1   
    33   30   38 1   
    34   31   32 2   
    35   31   41 1   
    36   33   34 1   
    37   33   39 1   
    38   33   40 1   
    39   34   35 1   
    40   34   36 1   
    41   41   42 1   
    42   41   45 1   
    43   42   43 1   
    44   42   46 1   
    45   42   47 1   
    46   43   44 2   
    47   43   48 1   
    48   48   49 1   
    49   48   56 1   
    50   49   50 1   
    51   49   52 1   
    52   49   57 1   
    53   50   51 2   
    54   50   62 1   
    55   52   53 1   
    56   52   58 1   
    57   52   59 1   
    58   53   54 1   
    59   53   55 2   
    60   54   60 1   
    61   54   61 1   
    62   62   63 1   
    63   62   66 1   
    64   63   64 1   
    65   63   67 1   
    66   63   68 1   
    67   64   65 2   
    68   64   69 1   
    69   69   70 1   
    70   69   76 1   
    71   70   71 1   
    72   70   73 1   
    73   70   77 1   
    74   71   72 2   
    75   71   83 1   
    76   73   74 1   
    77   73   75 1   
    78   73   78 1   
    79   74   80 1   
    80   74   81 1   
    81   74   82 1   
    82   75   79 1   
    83   83   84 1   
    84   83   91 1   
    85   84   85 1   
    86   84   87 1   
    87   84   92 1   
    88   85   86 2   
    89   85  102 1   
    90   87   88 1   
    91   87   89 1   
    92   87   93 1   
    93   88   90 1   
    94   88   94 1   
    95   88   95 1   
    96   89   96 1   
    97   89   97 1   
    98   89   98 1   
    99   90   99 1   
   100   90  100 1   
   101   90  101 1   
   102  102  103 1   
   103  102  110 1   
   104  103  104 1   
   105  103  106 1   
   106  103  111 1   
   107  104  105 2   
   108  104  114 1   
   109  106  107 1   
   110  106  112 1   
   111  106  113 1   
   112  107  108 1   
   113  107  109 1   
   114  114  115 1   
   115  114  125 1   
   116  115  116 1   
   117  115  118 1   
   118  115  126 1   
   119  116  117 2   
   120  116  134 1   
   121  118  119 1   
   122  118  127 1   
   123  118  128 1   
   124  119  120 ar  
   125  119  121 ar  
   126  120  122 ar  
   127  120  129 1   
   128  121  123 ar  
   129  121  130 1   
   130  122  124 ar  
   131  122  131 1   
   132  123  124 ar  
   133  123  132 1   
   134  124  133 1   
   135  134  135 1   
   136  134  140 1   
   137  135  136 1   
   138  135  138 1   
   139  135  141 1   
   140  136  137 2   
   141  136  148 1   
   142  138  139 1   
   143  138  142 1   
   144  138  143 1   
   145  139  140 1   
   146  139  144 1   
   147  139  145 1   
   148  140  146 1   
   149  140  147 1   
   150  148  149 1   
   151  148  157 1   
   152  149  150 1   
   153  149  152 1   
   154  149  158 1   
   155  150  151 2   
   156  150  163 1   
   157  152  153 1   
   158  152  159 1   
   159  152  160 1   
   160  153  154 1   
   161  153  161 1   
   162  153  162 1   
   163  154  155 1   
   164  154  156 1   
   165  163  164 1   
   166  163  168 1   
   167  164  165 1   
   168  164  166 1   
   169  164  167 1   
   170  170  171 1   
   171  170  172 1   
   172  173  174 1   
   173  173  175 1   
@<TRIPOS>SUBSTRUCTURE
     1 MOL         1 TEMP              0 ****  ****    0 ROOT
