@<TRIPOS>MOLECULE
MOL
  189   185     1     0     0
SMALL
resp


@<TRIPOS>ATOM
      1 C1         -0.1280    3.0650    5.5000 c3        1 MOL     -0.393967
      2 C2         -0.4770    2.3350    4.1870 c         1 MOL      0.839408
      3 O1          0.3480    2.3370    3.2950 o         1 MOL     -0.615218
      4 H1         -0.3700    4.1240    5.4010 hc        1 MOL      0.091097
      5 H2         -0.7040    2.6350    6.3200 hc        1 MOL      0.091097
      6 H3          0.9370    2.9540    5.7060 hc        1 MOL      0.091097
      7 N1         -1.7660    1.9170    4.0570 n         1 MOL     -0.825939
      8 C3         -2.2700    1.7330    2.6740 c3        1 MOL      0.458039
      9 C4         -2.3220    3.2090    2.0820 c         1 MOL      0.432369
     10 O2         -2.9910    4.0620    2.6290 o         1 MOL     -0.590519
     11 C5         -3.6510    0.9480    2.6950 c3        1 MOL     -0.390467
     12 C6         -4.2550    0.5980    1.3660 c         1 MOL      0.811233
     13 O3         -3.5480    0.5970    0.3480 o         1 MOL     -0.694970
     14 O4         -5.4700    0.2330    1.3650 o         1 MOL     -0.694970
     15 H4         -2.4220    1.9970    4.8220 hn        1 MOL      0.385918
     16 H5         -1.5690    1.1200    2.1050 h1        1 MOL     -0.067893
     17 H6         -4.4120    1.4690    3.2870 hc        1 MOL      0.088184
     18 H7         -3.4390   -0.0480    3.0630 hc        1 MOL      0.088184
     19 N2         -1.7100    3.4860    0.9290 n         1 MOL     -0.119460
     20 C7         -1.6140    4.7960    0.2350 c3        1 MOL     -0.089397
     21 C8         -2.4630    4.8790   -1.0610 c         1 MOL      0.622827
     22 O5         -2.4710    5.9450   -1.6530 o         1 MOL     -0.584094
     23 C9         -0.1830    5.1300    0.0360 c3        1 MOL     -0.045919
     24 C10         0.6510    5.2340    1.3170 c3        1 MOL      0.250095
     25 C11         0.0050    6.1580    2.3770 c3        1 MOL     -0.181776
     26 C12         1.1150    6.4550    3.3780 c3        1 MOL      0.010660
     27 N3          0.5830    7.1330    4.5380 n4        1 MOL     -0.406288
     28 H8         -1.2460    2.7040    0.4830 hn        1 MOL      0.227122
     29 H9         -2.0510    5.5460    0.8850 h1        1 MOL      0.055012
     30 H10        -0.0410    6.1120   -0.4080 hc        1 MOL      0.010616
     31 H11         0.3920    4.4150   -0.5610 hc        1 MOL      0.010616
     32 H12         1.6420    5.6580    1.1560 hc        1 MOL     -0.056869
     33 H13         0.7670    4.2180    1.7080 hc        1 MOL     -0.056869
     34 H14        -0.7160    5.4690    2.8160 hc        1 MOL      0.063560
     35 H15        -0.3280    7.0260    1.8050 hc        1 MOL      0.063560
     36 H16         1.8940    7.0180    2.8590 hx        1 MOL      0.099425
     37 H17         1.5230    5.4600    3.5910 hx        1 MOL      0.099425
     38 H18         1.2210    7.3060    5.3090 hn        1 MOL      0.338593
     39 H19         0.2760    8.0780    4.3430 hn        1 MOL      0.338593
     40 H20        -0.2260    6.5960    4.8440 hn        1 MOL      0.338593
     41 N4         -3.2250    3.8480   -1.4450 n         1 MOL     -0.399082
     42 C13        -4.2280    3.7660   -2.5800 c3        1 MOL      0.024066
     43 C14        -5.6580    3.2420   -2.2640 c         1 MOL      0.394142
     44 O6         -6.5810    3.4970   -3.0380 o         1 MOL     -0.497985
     45 C15        -3.6460    3.1170   -3.8530 c3        1 MOL     -0.298189
     46 C16        -2.9280    1.7770   -3.6460 c         1 MOL      0.854089
     47 O7         -2.8760    1.1960   -2.5600 o         1 MOL     -0.723632
     48 O8         -2.2950    1.3630   -4.6440 o         1 MOL     -0.723632
     49 H21        -3.0710    2.9500   -1.0030 hn        1 MOL      0.145957
     50 H22        -4.3340    4.7690   -2.9770 h1        1 MOL      0.116569
     51 H23        -3.0160    3.8200   -4.3980 hc        1 MOL      0.089032
     52 H24        -4.4570    2.7820   -4.4950 hc        1 MOL      0.089032
     53 N5         -5.8500    2.7910   -1.0210 n         1 MOL     -0.273809
     54 C17        -7.1970    2.2930   -0.5860 c3        1 MOL     -0.167895
     55 C18        -7.5310    0.8190   -0.9440 c         1 MOL      0.474440
     56 O9         -8.7140    0.3540   -0.9270 o         1 MOL     -0.583787
     57 H25        -5.0520    2.7290   -0.3950 hn        1 MOL      0.204829
     58 H26        -7.9640    2.9190   -1.0490 h1        1 MOL      0.117721
     59 H27        -7.3370    2.4330    0.4860 h1        1 MOL      0.117721
     60 N6         -6.5500    0.0900   -1.3890 n         1 MOL     -0.153614
     61 C19        -6.8290   -1.2900   -1.8300 c3        1 MOL     -0.044670
     62 C20        -7.0600   -2.3640   -0.7460 c         1 MOL      0.312149
     63 O10        -7.4970   -3.5020   -1.0690 o         1 MOL     -0.517210
     64 C21        -5.8980   -1.7500   -3.0020 c3        1 MOL     -0.270969
     65 C22        -4.4440   -1.6500   -2.5250 c         1 MOL      0.648181
     66 O11        -4.1500   -1.9940   -1.3800 o         1 MOL     -0.681290
     67 O12        -3.4800   -1.4780   -3.2910 o         1 MOL     -0.681290
     68 H28        -5.6390    0.3100   -1.0110 hn        1 MOL      0.192816
     69 H29        -7.7860   -1.2660   -2.3580 h1        1 MOL      0.130052
     70 H30        -6.0810   -1.0470   -3.8200 hc        1 MOL      0.106351
     71 H31        -6.0990   -2.7710   -3.3110 hc        1 MOL      0.106351
     72 N7         -6.6420   -2.0910    0.4950 n         1 MOL     -0.028629
     73 C23        -6.6350   -2.9570    1.6940 c3        1 MOL     -0.177872
     74 C24        -5.5220   -3.9260    1.8300 c         1 MOL      0.706507
     75 O13        -5.7870   -5.0200    2.3720 o         1 MOL     -0.577904
     76 H32        -6.4760   -1.1060    0.6300 hn        1 MOL      0.189672
     77 H33        -7.5330   -3.5720    1.7700 h1        1 MOL      0.067691
     78 H34        -6.7050   -2.2370    2.5020 h1        1 MOL      0.067691
     79 N8         -4.2710   -3.5680    1.4320 n         1 MOL     -0.559664
     80 C25        -3.0530   -4.3530    1.2750 c3        1 MOL     -0.007708
     81 C26        -1.8020   -3.4060    1.3420 c         1 MOL      0.712419
     82 O14        -1.7730   -2.3320    0.7730 o         1 MOL     -0.666646
     83 C27        -3.1420   -5.1240   -0.0860 c3        1 MOL      0.482010
     84 C28        -3.5290   -6.6220    0.0740 c3        1 MOL     -0.289070
     85 O15        -4.0130   -4.6120   -1.0660 oh        1 MOL     -0.648878
     86 H35        -4.1750   -2.6850    0.9520 hn        1 MOL      0.243070
     87 H36        -2.8700   -5.0420    2.0960 h1        1 MOL      0.039443
     88 H37        -2.1180   -5.0880   -0.4720 h1        1 MOL     -0.091749
     89 H38        -3.9130   -3.6590   -1.0270 ho        1 MOL      0.509746
     90 H39        -4.3790   -6.7870    0.7250 hc        1 MOL      0.067403
     91 H40        -3.7700   -6.9970   -0.9190 hc        1 MOL      0.067403
     92 H41        -2.6730   -7.1640    0.4650 hc        1 MOL      0.067403
     93 N9         -0.6690   -3.9330    1.8020 n         1 MOL     -0.687842
     94 C29         0.6760   -3.2050    1.8610 c3        1 MOL      0.127680
     95 C30         1.6730   -3.7410    0.8380 c         1 MOL      0.541696
     96 O16         1.9800   -4.9320    0.9080 o         1 MOL     -0.571558
     97 C31         1.2520   -3.2200    3.2760 c3        1 MOL      0.016540
     98 C32         0.6960   -1.9780    3.9760 c3        1 MOL      0.068173
     99 C33         2.8030   -3.1280    3.4960 c3        1 MOL     -0.161233
    100 C34         0.7820   -1.8580    5.4860 c3        1 MOL     -0.309912
    101 H42        -0.7640   -4.8610    2.2010 hn        1 MOL      0.339745
    102 H43         0.5400   -2.1590    1.5520 h1        1 MOL      0.042943
    103 H44         0.9610   -4.1330    3.7970 hc        1 MOL      0.040212
    104 H45        -0.3680   -1.9430    3.7780 hc        1 MOL      0.036187
    105 H46         1.1990   -1.1160    3.5320 hc        1 MOL      0.036187
    106 H47         3.2350   -2.2010    3.1120 hc        1 MOL      0.032999
    107 H48         3.0450   -3.1430    4.5600 hc        1 MOL      0.032999
    108 H49         3.3220   -3.9840    3.0830 hc        1 MOL      0.032999
    109 H50         0.6510   -2.8600    5.8910 hc        1 MOL      0.075778
    110 H51         1.6630   -1.2900    5.7890 hc        1 MOL      0.075778
    111 H52        -0.0480   -1.2940    5.9130 hc        1 MOL      0.075778
    112 N10         2.2600   -2.8480    0.0670 n         1 MOL     -0.029780
    113 C35         3.3060   -3.1510   -0.9540 c3        1 MOL     -0.238005
    114 C36         4.7090   -2.8940   -0.4050 c         1 MOL      0.426362
    115 O17         4.9690   -2.1960    0.6140 o         1 MOL     -0.508138
    116 C37         3.1060   -2.3560   -2.2670 c3        1 MOL      0.415801
    117 C38         1.8590   -2.6740   -2.9830 c3        1 MOL     -0.422524
    118 O18         3.0150   -0.9780   -2.0000 oh        1 MOL     -0.563501
    119 H53         1.8730   -1.9200   -0.0860 hn        1 MOL      0.031636
    120 H54         3.2360   -4.2250   -1.1770 h1        1 MOL      0.080002
    121 H55         3.9520   -2.5950   -2.9090 h1        1 MOL     -0.021741
    122 H56         2.1190   -0.8220   -1.7140 ho        1 MOL      0.318836
    123 H57         1.8250   -2.0550   -3.8810 hc        1 MOL      0.120664
    124 H58         1.6670   -3.6920   -3.3310 hc        1 MOL      0.120664
    125 H59         0.9830   -2.4270   -2.3750 hc        1 MOL      0.120664
    126 N11         5.7390   -3.3140   -1.1710 n         1 MOL     -0.082350
    127 C39         7.1790   -3.1320   -0.7290 c3        1 MOL     -0.517782
    128 C40         7.5520   -1.6940   -0.5740 c         1 MOL      0.628227
    129 O19         8.4090   -1.3970    0.1890 o         1 MOL     -0.538490
    130 C41         8.3000   -3.8120   -1.5970 c3        1 MOL      0.444999
    131 C42         8.1510   -5.3210   -1.6310 c3        1 MOL     -0.292592
    132 O20         8.2570   -3.2890   -2.8520 oh        1 MOL     -0.645672
    133 H60         5.5250   -4.0670   -1.8080 hn        1 MOL      0.230358
    134 H61         7.2050   -3.6180    0.2450 h1        1 MOL      0.213237
    135 H62         9.3010   -3.6340   -1.2030 h1        1 MOL      0.021145
    136 H63         9.0280   -3.6440   -3.2980 ho        1 MOL      0.411999
    137 H64         8.8400   -5.7550   -2.3550 hc        1 MOL      0.076391
    138 H65         8.4710   -5.7000   -0.6610 hc        1 MOL      0.076391
    139 H66         7.1010   -5.5890   -1.7300 hc        1 MOL      0.076391
    140 N12         6.8910   -0.7560   -1.2300 n         1 MOL     -0.375860
    141 C43         7.0470    0.6840   -1.0720 c3        1 MOL      0.020571
    142 C44         6.3060    1.2470    0.1720 c         1 MOL      0.212486
    143 O21         6.8190    2.0750    0.9310 o         1 MOL     -0.522551
    144 C45         6.7700    1.4580   -2.3300 c3        1 MOL     -0.145734
    145 C46         7.0950    2.9390   -2.2250 c3        1 MOL      0.010800
    146 C47         6.7980    3.6210   -3.5770 c3        1 MOL      0.160542
    147 C48         7.4530    5.0210   -3.7650 c3        1 MOL      0.027369
    148 N13         6.8110    5.8370   -4.8300 n4        1 MOL     -0.393558
    149 H67         6.2610   -1.0560   -1.9610 hn        1 MOL      0.240504
    150 H68         8.1080    0.8840   -0.9090 h1        1 MOL      0.126627
    151 H69         5.7140    1.3570   -2.5660 hc        1 MOL      0.064204
    152 H70         7.5060    1.1030   -3.0540 hc        1 MOL      0.064204
    153 H71         8.1490    3.1450   -2.0520 hc        1 MOL      0.024017
    154 H72         6.4310    3.4720   -1.5440 hc        1 MOL      0.024017
    155 H73         5.7130    3.7110   -3.6490 hc        1 MOL     -0.024741
    156 H74         7.0930    2.9210   -4.3560 hc        1 MOL     -0.024741
    157 H75         8.4940    4.8710   -4.0530 hx        1 MOL      0.072637
    158 H76         7.3260    5.5540   -2.8290 hx        1 MOL      0.072637
    159 H77         7.2700    6.7390   -4.8940 hn        1 MOL      0.328944
    160 H78         6.8440    5.3140   -5.6910 hn        1 MOL      0.328944
    161 H79         5.8710    6.1170   -4.5980 hn        1 MOL      0.328944
    162 N14         5.0940    0.8120    0.3560 n         1 MOL      0.049639
    163 C49         4.2600    1.2670    1.4620 c3        1 MOL     -0.233844
    164 C50         4.8840    0.6950    2.7400 c         1 MOL      0.464590
    165 O22         4.6890    1.2290    3.8480 o         1 MOL     -0.572099
    166 C51         2.8040    0.7430    1.2680 c3        1 MOL      0.156429
    167 C52         1.9720    1.4420    0.1290 c3        1 MOL     -0.015087
    168 C53         0.6910    0.7100   -0.2300 c         1 MOL      0.699237
    169 O23         0.6470   -0.5300   -0.4290 o         1 MOL     -0.691385
    170 O24        -0.3930    1.3420   -0.3340 o         1 MOL     -0.691385
    171 H80         4.7330    0.0660   -0.2130 hn        1 MOL      0.151411
    172 H81         4.2190    2.3600    1.4720 h1        1 MOL      0.116220
    173 H82         2.2220    0.9310    2.1780 hc        1 MOL      0.002315
    174 H83         2.8050   -0.3350    1.1150 hc        1 MOL      0.002315
    175 H84         2.6220    1.4990   -0.7430 hc        1 MOL     -0.025839
    176 H85         1.8360    2.4430    0.5300 hc        1 MOL     -0.025839
    177 N15         5.6620   -0.4020    2.6520 n         1 MOL     -0.011558
    178 C54         6.4390   -1.0080    3.6870 c3        1 MOL     -0.301695
    179 H86         7.3850   -0.4770    3.7880 h1        1 MOL      0.101712
    180 H87         5.8930   -0.9590    4.6290 h1        1 MOL      0.101712
    181 H88         6.6330   -2.0500    3.4340 h1        1 MOL      0.101712
    182 H89         5.7390   -0.8250    1.7440 hn        1 MOL      0.218572
    183 Ca1        -1.9010   -0.6610   -1.1890 Ca        1 MOL      1.735977
    184 O25        -1.5270   -3.1770   -2.6330 oh        1 MOL     -0.834072
    185 H90        -1.6490   -4.1280   -2.6800 ho        1 MOL      0.386735
    186 H91        -2.2200   -2.8200   -3.1890 ho        1 MOL      0.386735
    187 O26        -0.3500   -0.1170   -3.3640 oh        1 MOL     -0.834072
    188 H92         0.2040   -0.5480   -4.0100 ho        1 MOL      0.386735
    189 H93        -0.8690    0.5030   -3.8710 ho        1 MOL      0.386735
@<TRIPOS>BOND
     1    1    2 1   
     2    1    4 1   
     3    1    5 1   
     4    1    6 1   
     5    2    3 2   
     6    2    7 1   
     7    7    8 1   
     8    7   15 1   
     9    8    9 1   
    10    8   11 1   
    11    8   16 1   
    12    9   10 2   
    13    9   19 1   
    14   11   12 1   
    15   11   17 1   
    16   11   18 1   
    17   12   13 1   
    18   12   14 1   
    19   19   20 1   
    20   19   28 1   
    21   20   21 1   
    22   20   23 1   
    23   20   29 1   
    24   21   22 2   
    25   21   41 1   
    26   23   24 1   
    27   23   30 1   
    28   23   31 1   
    29   24   25 1   
    30   24   32 1   
    31   24   33 1   
    32   25   26 1   
    33   25   34 1   
    34   25   35 1   
    35   26   27 1   
    36   26   36 1   
    37   26   37 1   
    38   27   38 1   
    39   27   39 1   
    40   27   40 1   
    41   41   42 1   
    42   41   49 1   
    43   42   43 1   
    44   42   45 1   
    45   42   50 1   
    46   43   44 2   
    47   43   53 1   
    48   45   46 1   
    49   45   51 1   
    50   45   52 1   
    51   46   47 1   
    52   46   48 1   
    53   53   54 1   
    54   53   57 1   
    55   54   55 1   
    56   54   58 1   
    57   54   59 1   
    58   55   56 2   
    59   55   60 1   
    60   60   61 1   
    61   60   68 1   
    62   61   62 1   
    63   61   64 1   
    64   61   69 1   
    65   62   63 2   
    66   62   72 1   
    67   64   65 1   
    68   64   70 1   
    69   64   71 1   
    70   65   66 1   
    71   65   67 1   
    72   72   73 1   
    73   72   76 1   
    74   73   74 1   
    75   73   77 1   
    76   73   78 1   
    77   74   75 2   
    78   74   79 1   
    79   79   80 1   
    80   79   86 1   
    81   80   81 1   
    82   80   83 1   
    83   80   87 1   
    84   81   82 2   
    85   81   93 1   
    86   83   84 1   
    87   83   85 1   
    88   83   88 1   
    89   84   90 1   
    90   84   91 1   
    91   84   92 1   
    92   85   89 1   
    93   93   94 1   
    94   93  101 1   
    95   94   95 1   
    96   94   97 1   
    97   94  102 1   
    98   95   96 2   
    99   95  112 1   
   100   97   98 1   
   101   97   99 1   
   102   97  103 1   
   103   98  100 1   
   104   98  104 1   
   105   98  105 1   
   106   99  106 1   
   107   99  107 1   
   108   99  108 1   
   109  100  109 1   
   110  100  110 1   
   111  100  111 1   
   112  112  113 1   
   113  112  119 1   
   114  113  114 1   
   115  113  116 1   
   116  113  120 1   
   117  114  115 2   
   118  114  126 1   
   119  116  117 1   
   120  116  118 1   
   121  116  121 1   
   122  117  123 1   
   123  117  124 1   
   124  117  125 1   
   125  118  122 1   
   126  126  127 1   
   127  126  133 1   
   128  127  128 1   
   129  127  130 1   
   130  127  134 1   
   131  128  129 2   
   132  128  140 1   
   133  130  131 1   
   134  130  132 1   
   135  130  135 1   
   136  131  137 1   
   137  131  138 1   
   138  131  139 1   
   139  132  136 1   
   140  140  141 1   
   141  140  149 1   
   142  141  142 1   
   143  141  144 1   
   144  141  150 1   
   145  142  143 2   
   146  142  162 1   
   147  144  145 1   
   148  144  151 1   
   149  144  152 1   
   150  145  146 1   
   151  145  153 1   
   152  145  154 1   
   153  146  147 1   
   154  146  155 1   
   155  146  156 1   
   156  147  148 1   
   157  147  157 1   
   158  147  158 1   
   159  148  159 1   
   160  148  160 1   
   161  148  161 1   
   162  162  163 1   
   163  162  171 1   
   164  163  164 1   
   165  163  166 1   
   166  163  172 1   
   167  164  165 2   
   168  164  177 1   
   169  166  167 1   
   170  166  173 1   
   171  166  174 1   
   172  167  168 1   
   173  167  175 1   
   174  167  176 1   
   175  168  169 1   
   176  168  170 1   
   177  177  178 1   
   178  177  182 1   
   179  178  179 1   
   180  178  180 1   
   181  178  181 1   
   182  184  185 1   
   183  184  186 1   
   184  187  188 1   
   185  187  189 1   
@<TRIPOS>SUBSTRUCTURE
     1 MOL         1 TEMP              0 ****  ****    0 ROOT
