@<TRIPOS>MOLECULE
MOL
  175   173     1     0     0
SMALL
resp


@<TRIPOS>ATOM
      1 C1          0.7620    4.2920    5.4560 c3        1 MOL     -0.510359
      2 C2          0.2120    4.0000    4.0100 c         1 MOL      0.771872
      3 O1          0.8730    4.0950    3.0010 o         1 MOL     -0.564123
      4 H1          1.5410    3.5700    5.7010 hc        1 MOL      0.126800
      5 H2          1.1770    5.3000    5.4910 hc        1 MOL      0.126800
      6 H3         -0.0490    4.2080    6.1790 hc        1 MOL      0.126800
      7 N1         -1.1210    3.7030    3.9220 n         1 MOL     -0.720598
      8 C3         -1.8520    3.4530    2.6570 c3        1 MOL      0.161385
      9 C4         -1.9180    4.7230    1.7940 c         1 MOL      0.587259
     10 O2         -2.0820    5.8110    2.2860 o         1 MOL     -0.581206
     11 C5         -3.2350    2.9360    2.9040 c3        1 MOL     -0.356629
     12 C6         -3.9580    2.4190    1.6760 c         1 MOL      0.789065
     13 O3         -5.1910    2.1120    1.8150 o         1 MOL     -0.705310
     14 O4         -3.3240    2.1480    0.6480 o         1 MOL     -0.705310
     15 H4         -1.6510    3.7300    4.7780 hn        1 MOL      0.345741
     16 H5         -1.1920    2.7830    2.1010 h1        1 MOL      0.099954
     17 H6         -3.8810    3.7780    3.1620 hc        1 MOL      0.078666
     18 H7         -3.2700    2.2060    3.7000 hc        1 MOL      0.078666
     19 N2         -1.8440    4.4920    0.4900 n         1 MOL     -0.365141
     20 C7         -2.0190    5.5560   -0.5010 c3        1 MOL      0.125113
     21 C8         -3.0460    5.2200   -1.5820 c         1 MOL      0.606007
     22 O5         -3.3580    6.0460   -2.4640 o         1 MOL     -0.604207
     23 C9         -0.5860    5.9360   -0.9750 c3        1 MOL     -0.199661
     24 H8         -1.4630    3.6010    0.2100 hn        1 MOL      0.332696
     25 H9         -2.5270    6.3940   -0.0050 h1        1 MOL      0.014431
     26 H10        -0.6770    6.3060   -1.9930 hc        1 MOL      0.046897
     27 H11        -0.1360    6.7330   -0.3710 hc        1 MOL      0.046897
     28 H12        -0.0200    5.0130   -0.8570 hc        1 MOL      0.046897
     29 N3         -3.6970    4.0530   -1.4910 n         1 MOL     -0.411445
     30 C10        -4.5340    3.6160   -2.6250 c3        1 MOL     -0.016666
     31 C11        -5.8340    2.7850   -2.2380 c         1 MOL      0.477149
     32 O6         -6.6890    2.5300   -3.0750 o         1 MOL     -0.553663
     33 C12        -3.7120    2.8520   -3.6790 c3        1 MOL     -0.073870
     34 C13        -2.9940    1.6460   -3.0940 c         1 MOL      0.685334
     35 O7         -3.4460    0.9610   -2.0990 o         1 MOL     -0.678210
     36 O8         -1.9980    1.2440   -3.7580 o         1 MOL     -0.678210
     37 H13        -3.5270    3.4080   -0.7230 hn        1 MOL      0.135508
     38 H14        -5.0360    4.4840   -3.0490 h1        1 MOL      0.083047
     39 H15        -2.9750    3.5350   -4.1150 hc        1 MOL      0.032172
     40 H16        -4.3430    2.5250   -4.4960 hc        1 MOL      0.032172
     41 N4         -5.9670    2.2990   -0.9600 n         1 MOL     -0.294851
     42 C14        -7.0750    1.4840   -0.4290 c3        1 MOL     -0.201805
     43 C15        -7.1650    0.0260   -1.0170 c         1 MOL      0.503217
     44 O9         -8.2190   -0.6100   -0.8140 o         1 MOL     -0.615084
     45 H17        -5.3450    2.6580   -0.2490 hn        1 MOL      0.236777
     46 H18        -8.0670    1.8680   -0.6670 h1        1 MOL      0.118339
     47 H19        -6.9900    1.4030    0.6490 h1        1 MOL      0.118339
     48 N5         -6.1580   -0.5020   -1.7150 n         1 MOL     -0.162017
     49 C16        -6.2810   -1.8100   -2.3340 c3        1 MOL      0.088218
     50 C17        -6.4140   -3.0270   -1.3950 c         1 MOL      0.424176
     51 O10        -6.8250   -4.0630   -1.9420 o         1 MOL     -0.564578
     52 C18        -5.0460   -2.0570   -3.2490 c3        1 MOL     -0.257674
     53 C19        -3.7250   -2.2890   -2.4830 c         1 MOL      0.750224
     54 N6         -2.7250   -2.6420   -3.2480 n         1 MOL     -0.705653
     55 O11        -3.5430   -2.1440   -1.3240 o         1 MOL     -0.729734
     56 H20        -5.3480    0.0750   -1.8750 hn        1 MOL      0.159993
     57 H21        -7.1510   -1.7730   -2.9950 h1        1 MOL      0.066178
     58 H22        -4.9040   -1.1800   -3.8810 hc        1 MOL      0.072360
     59 H23        -5.2130   -2.9420   -3.8510 hc        1 MOL      0.072360
     60 H24        -2.9450   -2.7420   -4.2310 hn        1 MOL      0.326192
     61 H25        -1.7860   -2.2890   -3.1430 hn        1 MOL      0.326192
     62 N7         -6.1680   -2.9520   -0.0900 n         1 MOL     -0.102339
     63 C20        -6.3820   -4.0700    0.7620 c3        1 MOL     -0.039188
     64 C21        -5.1830   -4.5590    1.5060 c         1 MOL      0.413124
     65 O12        -5.2490   -5.4420    2.4060 o         1 MOL     -0.577059
     66 H26        -5.8100   -2.0860    0.2870 hn        1 MOL      0.114482
     67 H27        -6.7480   -4.9060    0.1670 h1        1 MOL      0.068683
     68 H28        -7.2020   -3.8740    1.4500 h1        1 MOL      0.068683
     69 N8         -4.0190   -4.0230    1.2240 n         1 MOL     -0.181807
     70 C22        -2.6730   -4.5290    1.6050 c3        1 MOL     -0.101363
     71 C23        -1.6780   -3.3540    1.7630 c         1 MOL      0.411467
     72 O13        -2.0440   -2.2560    1.3200 o         1 MOL     -0.440841
     73 C24        -2.1750   -5.5680    0.5260 c3        1 MOL      0.470551
     74 C25        -3.0660   -6.7990    0.5300 c3        1 MOL     -0.630508
     75 O14        -2.1670   -4.9470   -0.7210 oh        1 MOL     -0.591532
     76 H29        -4.0380   -3.3430    0.4720 hn        1 MOL      0.196951
     77 H30        -2.5960   -5.1030    2.5300 h1        1 MOL      0.077261
     78 H31        -1.1310   -5.7850    0.7270 h1        1 MOL      0.024748
     79 H32        -2.9130   -4.3400   -0.7810 ho        1 MOL      0.364999
     80 H33        -4.0870   -6.5890    0.2160 hc        1 MOL      0.156031
     81 H34        -2.5520   -7.5530   -0.0820 hc        1 MOL      0.156031
     82 H35        -3.2500   -7.1830    1.5320 hc        1 MOL      0.156031
     83 N9         -0.4770   -3.5890    2.3300 n         1 MOL     -0.460787
     84 C26         0.7320   -2.7410    2.3040 c3        1 MOL     -0.040572
     85 C27         1.4940   -2.9910    0.9930 c         1 MOL      0.752561
     86 O15         2.0960   -4.0030    0.8330 o         1 MOL     -0.615501
     87 C28         1.6170   -2.9780    3.5670 c3        1 MOL      0.102079
     88 C29         0.7950   -2.8900    4.8540 c3        1 MOL      0.301029
     89 C30         2.7400   -1.8690    3.5250 c3        1 MOL     -0.193705
     90 C31         1.5100   -2.5560    6.1640 c3        1 MOL     -0.379798
     91 H36        -0.3210   -4.5760    2.4910 hn        1 MOL      0.243125
     92 H37         0.3850   -1.7050    2.2800 h1        1 MOL      0.041931
     93 H38         2.1170   -3.9440    3.5900 hc        1 MOL     -0.013311
     94 H39         0.2570   -3.8090    5.0610 hc        1 MOL     -0.057774
     95 H40        -0.0350   -2.1810    4.7250 hc        1 MOL     -0.057774
     96 H41         2.3120   -0.8840    3.6960 hc        1 MOL      0.031844
     97 H42         3.4210   -1.9880    4.3590 hc        1 MOL      0.031844
     98 H43         3.2170   -1.8270    2.5450 hc        1 MOL      0.031844
     99 H44         0.7800   -2.5900    6.9690 hc        1 MOL      0.081501
    100 H45         2.2850   -3.3110    6.3140 hc        1 MOL      0.081501
    101 H46         1.7980   -1.5090    6.1850 hc        1 MOL      0.081501
    102 N10         1.6310   -1.9480    0.1370 n         1 MOL     -0.569770
    103 C32         2.4870   -2.0430   -1.0370 c3        1 MOL      0.404741
    104 C33         3.9830   -1.7140   -0.6830 c         1 MOL      0.252358
    105 O16         4.2620   -1.0050    0.2700 o         1 MOL     -0.208955
    106 C34         1.9740   -1.2630   -2.2440 c3        1 MOL     -0.409567
    107 C35         0.5450   -1.5100   -2.5430 c         1 MOL      0.778920
    108 O17        -0.3070   -1.0730   -1.7640 o         1 MOL     -0.672569
    109 O18         0.1430   -2.1100   -3.5800 o         1 MOL     -0.672569
    110 H47         1.1940   -1.0740    0.3910 hn        1 MOL      0.160093
    111 H48         2.4750   -3.0820   -1.3600 h1        1 MOL      0.004262
    112 H49         2.6300   -1.5830   -3.0490 hc        1 MOL      0.100465
    113 H50         2.1000   -0.2340   -1.8930 hc        1 MOL      0.100465
    114 N11         4.9120   -2.0940   -1.5270 n         1 MOL     -0.518951
    115 C36         6.3130   -1.7160   -1.2500 c3        1 MOL      0.255011
    116 C37         6.5610   -0.2230   -1.0180 c         1 MOL      0.314679
    117 O19         7.3540    0.0920   -0.0760 o         1 MOL     -0.477652
    118 C38         7.2210   -2.1710   -2.3710 c3        1 MOL     -0.049215
    119 C39         8.7240   -1.8710   -2.3020 ca        1 MOL      0.014304
    120 C40         9.5090   -2.5650   -1.3080 ca        1 MOL     -0.145493
    121 C41         9.3150   -0.9230   -3.1960 ca        1 MOL     -0.145493
    122 C42        10.8960   -2.2660   -1.2470 ca        1 MOL     -0.103490
    123 C43        10.6980   -0.7240   -3.1280 ca        1 MOL     -0.103490
    124 C44        11.4860   -1.3410   -2.1430 ca        1 MOL     -0.125563
    125 H51         4.6680   -2.7910   -2.2030 hn        1 MOL      0.321749
    126 H52         6.7780   -2.2500   -0.4160 h1        1 MOL      0.049645
    127 H53         6.9170   -1.8970   -3.3780 hc        1 MOL      0.023739
    128 H54         7.1070   -3.2530   -2.4280 hc        1 MOL      0.023739
    129 H55         9.0810   -3.2780   -0.6060 ha        1 MOL      0.123914
    130 H56         8.8230   -0.5360   -4.0730 ha        1 MOL      0.123914
    131 H57        11.5380   -2.7530   -0.5240 ha        1 MOL      0.104351
    132 H58        11.2190   -0.0430   -3.7790 ha        1 MOL      0.104351
    133 H59        12.5290   -1.0830   -2.0840 ha        1 MOL      0.106853
    134 N12         5.8840    0.7130   -1.7480 n         1 MOL      0.025941
    135 C45         6.1170    2.1670   -1.6200 c3        1 MOL     -0.173534
    136 C46         5.3010    2.7730   -0.4310 c         1 MOL      0.514787
    137 O20         4.8800    3.9430   -0.3680 o         1 MOL     -0.556415
    138 C47         5.7380    2.7880   -2.9760 c3        1 MOL     -0.031796
    139 C48         4.6520    1.8720   -3.4330 c3        1 MOL      0.036321
    140 C49         5.2080    0.5360   -3.0550 c3        1 MOL      0.123489
    141 H60         7.1330    2.3420   -1.2820 h1        1 MOL      0.103262
    142 H61         5.4670    3.8360   -3.0710 hc        1 MOL      0.032304
    143 H62         6.6060    2.6540   -3.6280 hc        1 MOL      0.032304
    144 H63         3.7290    2.0150   -2.8690 hc        1 MOL      0.023734
    145 H64         4.4900    1.9010   -4.5120 hc        1 MOL      0.023734
    146 H65         4.4740   -0.2670   -3.0100 h1        1 MOL     -0.040462
    147 H66         5.9460    0.3030   -3.8220 h1        1 MOL     -0.040462
    148 N13         4.9370    1.9010    0.4980 n         1 MOL     -0.196001
    149 C50         4.2070    2.1480    1.7620 c3        1 MOL      0.022750
    150 C51         4.8390    1.5010    2.9950 c         1 MOL      0.404168
    151 O21         4.9520    2.1170    4.0310 o         1 MOL     -0.542637
    152 C52         2.7670    1.7080    1.5800 c3        1 MOL      0.104089
    153 C53         1.9520    2.2500    0.4180 c3        1 MOL     -0.040013
    154 C54         0.5200    1.6670    0.4230 c         1 MOL      0.460931
    155 O22         0.2350    0.5660    0.9710 o         1 MOL     -0.630491
    156 O23        -0.3530    2.1820   -0.2670 o         1 MOL     -0.630491
    157 H67         5.0210    0.9270    0.2420 hn        1 MOL     -0.105633
    158 H68         4.2740    3.2010    2.0390 h1        1 MOL      0.091754
    159 H69         2.2560    2.0060    2.4970 hc        1 MOL     -0.005924
    160 H70         2.6280    0.6260    1.6310 hc        1 MOL     -0.005924
    161 H71         2.4410    1.9820   -0.5190 hc        1 MOL      0.065531
    162 H72         2.0970    3.3280    0.4690 hc        1 MOL      0.065531
    163 N14         5.4480    0.3100    2.7890 n         1 MOL     -0.042389
    164 C55         6.4800   -0.3710    3.5830 c3        1 MOL     -0.141425
    165 H73         6.0220   -1.1790    4.1540 h1        1 MOL      0.064859
    166 H74         7.2380   -0.7820    2.9180 h1        1 MOL      0.064859
    167 H75         6.9420    0.3400    4.2670 h1        1 MOL      0.064859
    168 H76         5.2410   -0.0190    1.8570 hn        1 MOL      0.058107
    169 Ca1        -2.0850   -0.0460   -0.2280 Ca        1 MOL      1.670158
    170 O24        -1.8280    0.1850    2.6180 oh        1 MOL     -0.703913
    171 H77        -0.9210    0.4510    2.4690 ho        1 MOL      0.358335
    172 H78        -1.9170    0.1800    3.5730 ho        1 MOL      0.358335
    173 O25        -4.5230   -0.5910    1.2980 oh        1 MOL     -0.703913
    174 H79        -4.1820   -0.7060    2.1900 ho        1 MOL      0.358335
    175 H80        -4.9190    0.2760    1.2950 ho        1 MOL      0.358335
@<TRIPOS>BOND
     1    1    2 1   
     2    1    4 1   
     3    1    5 1   
     4    1    6 1   
     5    2    3 2   
     6    2    7 1   
     7    7    8 1   
     8    7   15 1   
     9    8    9 1   
    10    8   11 1   
    11    8   16 1   
    12    9   10 2   
    13    9   19 1   
    14   11   12 1   
    15   11   17 1   
    16   11   18 1   
    17   12   13 1   
    18   12   14 1   
    19   19   20 1   
    20   19   24 1   
    21   20   21 1   
    22   20   23 1   
    23   20   25 1   
    24   21   22 2   
    25   21   29 1   
    26   23   26 1   
    27   23   27 1   
    28   23   28 1   
    29   29   30 1   
    30   29   37 1   
    31   30   31 1   
    32   30   33 1   
    33   30   38 1   
    34   31   32 2   
    35   31   41 1   
    36   33   34 1   
    37   33   39 1   
    38   33   40 1   
    39   34   35 1   
    40   34   36 1   
    41   41   42 1   
    42   41   45 1   
    43   42   43 1   
    44   42   46 1   
    45   42   47 1   
    46   43   44 2   
    47   43   48 1   
    48   48   49 1   
    49   48   56 1   
    50   49   50 1   
    51   49   52 1   
    52   49   57 1   
    53   50   51 2   
    54   50   62 1   
    55   52   53 1   
    56   52   58 1   
    57   52   59 1   
    58   53   54 1   
    59   53   55 2   
    60   54   60 1   
    61   54   61 1   
    62   62   63 1   
    63   62   66 1   
    64   63   64 1   
    65   63   67 1   
    66   63   68 1   
    67   64   65 2   
    68   64   69 1   
    69   69   70 1   
    70   69   76 1   
    71   70   71 1   
    72   70   73 1   
    73   70   77 1   
    74   71   72 2   
    75   71   83 1   
    76   73   74 1   
    77   73   75 1   
    78   73   78 1   
    79   74   80 1   
    80   74   81 1   
    81   74   82 1   
    82   75   79 1   
    83   83   84 1   
    84   83   91 1   
    85   84   85 1   
    86   84   87 1   
    87   84   92 1   
    88   85   86 2   
    89   85  102 1   
    90   87   88 1   
    91   87   89 1   
    92   87   93 1   
    93   88   90 1   
    94   88   94 1   
    95   88   95 1   
    96   89   96 1   
    97   89   97 1   
    98   89   98 1   
    99   90   99 1   
   100   90  100 1   
   101   90  101 1   
   102  102  103 1   
   103  102  110 1   
   104  103  104 1   
   105  103  106 1   
   106  103  111 1   
   107  104  105 2   
   108  104  114 1   
   109  106  107 1   
   110  106  112 1   
   111  106  113 1   
   112  107  108 1   
   113  107  109 1   
   114  114  115 1   
   115  114  125 1   
   116  115  116 1   
   117  115  118 1   
   118  115  126 1   
   119  116  117 2   
   120  116  134 1   
   121  118  119 1   
   122  118  127 1   
   123  118  128 1   
   124  119  120 ar  
   125  119  121 ar  
   126  120  122 ar  
   127  120  129 1   
   128  121  123 ar  
   129  121  130 1   
   130  122  124 ar  
   131  122  131 1   
   132  123  124 ar  
   133  123  132 1   
   134  124  133 1   
   135  134  135 1   
   136  134  140 1   
   137  135  136 1   
   138  135  138 1   
   139  135  141 1   
   140  136  137 2   
   141  136  148 1   
   142  138  139 1   
   143  138  142 1   
   144  138  143 1   
   145  139  140 1   
   146  139  144 1   
   147  139  145 1   
   148  140  146 1   
   149  140  147 1   
   150  148  149 1   
   151  148  157 1   
   152  149  150 1   
   153  149  152 1   
   154  149  158 1   
   155  150  151 2   
   156  150  163 1   
   157  152  153 1   
   158  152  159 1   
   159  152  160 1   
   160  153  154 1   
   161  153  161 1   
   162  153  162 1   
   163  154  155 1   
   164  154  156 1   
   165  163  164 1   
   166  163  168 1   
   167  164  165 1   
   168  164  166 1   
   169  164  167 1   
   170  170  171 1   
   171  170  172 1   
   172  173  174 1   
   173  173  175 1   
@<TRIPOS>SUBSTRUCTURE
     1 MOL         1 TEMP              0 ****  ****    0 ROOT
