@<TRIPOS>MOLECULE
MOL
  175   173     1     0     0
SMALL
resp


@<TRIPOS>ATOM
      1 C1          0.3750    3.9650    5.4070 c3        1 MOL     -0.278882
      2 C2         -0.3150    3.8900    4.0100 c         1 MOL      0.660560
      3 O1          0.3500    4.1450    3.0260 o         1 MOL     -0.544694
      4 H1          1.3790    4.3740    5.2950 hc        1 MOL      0.064126
      5 H2         -0.2070    4.6080    6.0680 hc        1 MOL      0.064126
      6 H3          0.4380    2.9650    5.8370 hc        1 MOL      0.064126
      7 N1         -1.5030    3.2860    3.9870 n         1 MOL     -0.576860
      8 C3         -2.2200    3.1540    2.7280 c3        1 MOL      0.106740
      9 C4         -2.4550    4.4350    1.9420 c         1 MOL      0.637041
     10 O2         -2.8810    5.4470    2.4460 o         1 MOL     -0.605934
     11 C5         -3.5750    2.4240    3.0480 c3        1 MOL     -0.480907
     12 C6         -4.3020    2.1350    1.7250 c         1 MOL      0.690098
     13 O3         -5.4950    2.4860    1.6740 o         1 MOL     -0.649060
     14 O4         -3.6990    1.7340    0.7020 o         1 MOL     -0.649060
     15 H4         -1.9870    3.1300    4.8540 hn        1 MOL      0.315968
     16 H5         -1.5770    2.4840    2.1570 h1        1 MOL      0.061738
     17 H6         -4.1520    3.0890    3.6900 hc        1 MOL      0.128315
     18 H7         -3.3310    1.4900    3.5580 hc        1 MOL      0.128315
     19 N2         -2.1760    4.3180    0.6590 n         1 MOL     -0.233044
     20 C7         -2.4010    5.3850   -0.2850 c3        1 MOL     -0.000775
     21 C8         -3.1580    4.9960   -1.5750 c         1 MOL      0.672159
     22 O5         -3.0950    5.7550   -2.5480 o         1 MOL     -0.592600
     23 C9         -1.0170    5.9520   -0.5870 c3        1 MOL     -0.161840
     24 H8         -1.9500    3.3780    0.3750 hn        1 MOL      0.160946
     25 H9         -3.0110    6.1450    0.2000 h1        1 MOL      0.061049
     26 H10        -0.3510    5.9600    0.2740 hc        1 MOL      0.040032
     27 H11        -0.4480    5.3310   -1.2820 hc        1 MOL      0.040032
     28 H12        -0.9970    6.9620   -1.0040 hc        1 MOL      0.040032
     29 N3         -4.0390    3.9780   -1.5740 n         1 MOL     -0.571049
     30 C10        -4.9060    3.4880   -2.7230 c3        1 MOL      0.106580
     31 C11        -6.2280    2.7050   -2.2760 c         1 MOL      0.349039
     32 O6         -7.2140    2.6720   -3.0860 o         1 MOL     -0.565052
     33 C12        -4.0960    2.5310   -3.5550 c3        1 MOL     -0.216474
     34 C13        -3.4210    1.3820   -2.8410 c         1 MOL      0.838062
     35 O7         -3.9430    0.6890   -1.9710 o         1 MOL     -0.733172
     36 O8         -2.3190    1.0420   -3.2690 o         1 MOL     -0.733172
     37 H13        -4.1310    3.4630   -0.7130 hn        1 MOL      0.261340
     38 H14        -5.1280    4.3430   -3.3560 h1        1 MOL      0.087654
     39 H15        -3.3190    3.0960   -4.0510 hc        1 MOL      0.055385
     40 H16        -4.7860    2.1080   -4.2780 hc        1 MOL      0.055385
     41 N4         -6.3150    2.1920   -1.0610 n         1 MOL     -0.108208
     42 C14        -7.4780    1.3820   -0.7370 c3        1 MOL     -0.173172
     43 C15        -7.4970   -0.1550   -1.0360 c         1 MOL      0.539141
     44 O9         -8.3700   -0.8610   -0.6960 o         1 MOL     -0.614564
     45 H17        -5.5890    2.2300   -0.3610 hn        1 MOL      0.165407
     46 H18        -8.3860    1.8570   -1.1250 h1        1 MOL      0.096673
     47 H19        -7.6860    1.4530    0.3240 h1        1 MOL      0.096673
     48 N5         -6.3960   -0.7190   -1.5350 n         1 MOL     -0.268391
     49 C16        -6.2680   -2.1010   -1.9890 c3        1 MOL      0.058391
     50 C17        -6.1610   -3.1760   -0.8620 c         1 MOL      0.358289
     51 O10        -6.0110   -4.3790   -1.0940 o         1 MOL     -0.506262
     52 C18        -5.1670   -2.2010   -3.0650 c3        1 MOL     -0.158555
     53 C19        -3.7440   -2.1700   -2.5520 c         1 MOL      0.605291
     54 N6         -2.8150   -2.3420   -3.4220 n         1 MOL     -0.507175
     55 O11        -3.3780   -2.0830   -1.3600 o         1 MOL     -0.627582
     56 H20        -5.5730   -0.1340   -1.6200 hn        1 MOL      0.167679
     57 H21        -7.1410   -2.3400   -2.5950 h1        1 MOL      0.092936
     58 H22        -5.3830   -1.5220   -3.8950 hc        1 MOL      0.051697
     59 H23        -5.3360   -3.2170   -3.4210 hc        1 MOL      0.051697
     60 H24        -3.0970   -2.3620   -4.3970 hn        1 MOL      0.287181
     61 H25        -1.8300   -2.4050   -3.2010 hn        1 MOL      0.287181
     62 N7         -6.2720   -2.7610    0.4240 n         1 MOL     -0.130480
     63 C20        -6.3150   -3.6450    1.5160 c3        1 MOL     -0.326422
     64 C21        -4.9820   -4.3320    1.8430 c         1 MOL      0.429354
     65 O12        -4.9770   -5.2000    2.7390 o         1 MOL     -0.551390
     66 H26        -6.6100   -1.8290    0.5660 hn        1 MOL      0.244011
     67 H27        -7.1490   -4.3230    1.2900 h1        1 MOL      0.141772
     68 H28        -6.6740   -3.0110    2.3280 h1        1 MOL      0.141772
     69 N8         -3.8630   -4.0640    1.1350 n         1 MOL      0.020755
     70 C22        -2.4940   -4.5510    1.3260 c3        1 MOL     -0.375009
     71 C23        -1.4190   -3.4860    1.3980 c         1 MOL      0.561591
     72 O13        -1.5800   -2.4320    0.8850 o         1 MOL     -0.494149
     73 C24        -2.0720   -5.5410    0.2270 c3        1 MOL      0.595574
     74 C25        -2.9740   -6.8180    0.1340 c3        1 MOL     -0.437827
     75 O14        -2.1520   -4.9750   -1.0120 oh        1 MOL     -0.572706
     76 H29        -4.0100   -3.3990    0.3800 hn        1 MOL      0.169846
     77 H30        -2.4070   -5.1690    2.2180 h1        1 MOL      0.100780
     78 H31        -0.9990   -5.7140    0.3310 h1        1 MOL     -0.059615
     79 H32        -2.5140   -4.0920   -0.8510 ho        1 MOL      0.291715
     80 H33        -4.0210   -6.5420   -0.0480 hc        1 MOL      0.095398
     81 H34        -2.5140   -7.5660   -0.5120 hc        1 MOL      0.095398
     82 H35        -2.8830   -7.1530    1.1620 hc        1 MOL      0.095398
     83 N9         -0.2140   -3.7120    1.9170 n         1 MOL     -0.296302
     84 C26         0.8570   -2.7320    1.9140 c3        1 MOL     -0.153946
     85 C27         1.6180   -3.0360    0.6440 c         1 MOL      0.629621
     86 O15         2.2180   -4.0750    0.4950 o         1 MOL     -0.588322
     87 C28         1.8050   -2.9110    3.1320 c3        1 MOL      0.213197
     88 C29         1.0930   -2.6140    4.4230 c3        1 MOL      0.014903
     89 C30         3.1580   -2.0260    3.0870 c3        1 MOL     -0.203253
     90 C31         1.6520   -3.4160    5.6060 c3        1 MOL     -0.207282
     91 H36        -0.1130   -4.6220    2.3510 hn        1 MOL      0.211979
     92 H37         0.4650   -1.7140    1.9900 h1        1 MOL      0.070030
     93 H38         2.1350   -3.9570    3.0890 hc        1 MOL     -0.019317
     94 H39         0.0550   -2.9250    4.3190 hc        1 MOL      0.009020
     95 H40         1.1240   -1.5760    4.7480 hc        1 MOL      0.009020
     96 H41         2.8120   -0.9960    3.1770 hc        1 MOL      0.037645
     97 H42         3.8590   -2.2310    3.8950 hc        1 MOL      0.037645
     98 H43         3.5990   -2.2450    2.1170 hc        1 MOL      0.037645
     99 H44         0.9480   -3.2220    6.4230 hc        1 MOL      0.039630
    100 H45         1.7250   -4.4620    5.3060 hc        1 MOL      0.039630
    101 H46         2.6070   -3.1000    6.0220 hc        1 MOL      0.039630
    102 N10         1.6900   -1.9770   -0.2370 n         1 MOL     -0.505282
    103 C32         2.5190   -1.8710   -1.4860 c3        1 MOL      0.175813
    104 C33         3.9170   -1.4240   -1.0380 c         1 MOL      0.661206
    105 O16         4.1060   -0.6840   -0.1040 o         1 MOL     -0.434395
    106 C34         1.9070   -0.8790   -2.4500 c3        1 MOL     -0.471874
    107 C35         0.4230   -1.2220   -2.7440 c         1 MOL      0.803402
    108 O17         0.1330   -1.8050   -3.8180 o         1 MOL     -0.679408
    109 O18        -0.4330   -0.9960   -1.8770 o         1 MOL     -0.679408
    110 H47         1.2320   -1.1340    0.0770 hn        1 MOL      0.326793
    111 H48         2.7080   -2.8420   -1.9400 h1        1 MOL      0.057896
    112 H49         2.5470   -0.8900   -3.3290 hc        1 MOL      0.109959
    113 H50         2.0110    0.1480   -2.0990 hc        1 MOL      0.109959
    114 N11         5.0310   -1.8160   -1.7110 n         1 MOL     -0.923772
    115 C36         6.4140   -1.4360   -1.3420 c3        1 MOL      0.736030
    116 C37         6.7540    0.0380   -1.1240 c         1 MOL      0.158795
    117 O19         7.4100    0.3170   -0.0720 o         1 MOL     -0.494688
    118 C38         7.4520   -2.0530   -2.3020 c3        1 MOL     -0.385294
    119 C39         8.9360   -1.9090   -1.8260 ca        1 MOL      0.266985
    120 C40         9.8770   -1.1770   -2.6150 ca        1 MOL     -0.284013
    121 C41         9.4170   -2.5650   -0.6830 ca        1 MOL     -0.284013
    122 C42        11.1720   -1.0600   -2.1660 ca        1 MOL     -0.053587
    123 C43        10.7950   -2.5050   -0.2710 ca        1 MOL     -0.053587
    124 C44        11.6580   -1.7100   -1.0390 ca        1 MOL     -0.139106
    125 H51         4.8760   -2.5160   -2.4220 hn        1 MOL      0.362206
    126 H52         6.6180   -1.9250   -0.3870 h1        1 MOL     -0.011715
    127 H53         7.3750   -1.6920   -3.3230 hc        1 MOL      0.082585
    128 H54         7.3130   -3.1300   -2.3880 hc        1 MOL      0.082585
    129 H55         9.4830   -0.7110   -3.5070 ha        1 MOL      0.144144
    130 H56         8.7590   -3.0660    0.0090 ha        1 MOL      0.144144
    131 H57        11.8140   -0.4640   -2.7800 ha        1 MOL      0.103031
    132 H58        11.1080   -2.9310    0.6650 ha        1 MOL      0.103031
    133 H59        12.7190   -1.6290   -0.8390 ha        1 MOL      0.094425
    134 N12         6.2610    1.0270   -1.8970 n         1 MOL      0.030927
    135 C45         6.4330    2.4710   -1.5850 c3        1 MOL      0.024165
    136 C46         5.7070    2.9480   -0.3010 c         1 MOL      0.229826
    137 O20         6.0760    3.9690    0.2380 o         1 MOL     -0.498510
    138 C47         5.8870    3.2220   -2.7950 c3        1 MOL     -0.114542
    139 C48         6.0020    2.1000   -3.8670 c3        1 MOL      0.059957
    140 C49         5.5750    0.8550   -3.1600 c3        1 MOL     -0.256996
    141 H60         7.4990    2.7040   -1.5240 h1        1 MOL      0.095698
    142 H61         4.8420    3.5620   -2.8450 hc        1 MOL      0.067454
    143 H62         6.5290    4.0290   -3.1250 hc        1 MOL      0.067454
    144 H63         5.3830    2.2670   -4.7430 hc        1 MOL     -0.004990
    145 H64         7.0580    1.9680   -4.0860 hc        1 MOL     -0.004990
    146 H65         4.4900    0.9460   -3.0840 h1        1 MOL      0.125272
    147 H66         6.0300    0.0390   -3.7270 h1        1 MOL      0.125272
    148 N13         4.7510    2.1960    0.2260 n         1 MOL      0.020716
    149 C50         4.0520    2.5170    1.4900 c3        1 MOL     -0.139283
    150 C51         4.8640    1.9140    2.6460 c         1 MOL      0.491707
    151 O21         4.8950    2.5480    3.6710 o         1 MOL     -0.568757
    152 C52         2.6580    1.9230    1.4860 c3        1 MOL     -0.037156
    153 C53         1.7780    2.4340    0.3150 c3        1 MOL     -0.022415
    154 C54         0.4090    1.7460    0.2870 c         1 MOL      0.575734
    155 O22        -0.6080    2.1900   -0.3260 o         1 MOL     -0.688082
    156 O23         0.2780    0.6330    0.8100 o         1 MOL     -0.688082
    157 H67         4.5060    1.3250   -0.2280 hn        1 MOL      0.059418
    158 H68         3.9920    3.5820    1.6730 h1        1 MOL      0.132455
    159 H69         2.0990    2.1820    2.3860 hc        1 MOL      0.040290
    160 H70         2.6940    0.8410    1.3530 hc        1 MOL      0.040290
    161 H71         2.2610    2.3000   -0.6510 hc        1 MOL      0.036121
    162 H72         1.6560    3.4930    0.5330 hc        1 MOL      0.036121
    163 N14         5.5890    0.8320    2.4290 n         1 MOL     -0.040685
    164 C55         6.6300    0.3820    3.4500 c3        1 MOL     -0.277854
    165 H73         7.5950    0.8230    3.2020 h1        1 MOL      0.102505
    166 H74         6.3260    0.7060    4.4460 h1        1 MOL      0.102505
    167 H75         6.7110   -0.7050    3.4310 h1        1 MOL      0.102505
    168 H76         5.5940    0.3560    1.5390 hn        1 MOL      0.082656
    169 Ca1        -2.1700    0.0290   -0.2740 Ca        1 MOL      1.701221
    170 O24        -3.9830   -0.8700    1.5750 oh        1 MOL     -0.798343
    171 H77        -4.9000   -0.6270    1.6170 ho        1 MOL      0.379594
    172 H78        -3.7560   -1.1050    2.4770 ho        1 MOL      0.379594
    173 O25        -1.1980   -0.3010    2.8290 oh        1 MOL     -0.798343
    174 H79        -1.1170    0.3660    3.5110 ho        1 MOL      0.379594
    175 H80        -0.4080   -0.2050    2.2990 ho        1 MOL      0.379594
@<TRIPOS>BOND
     1    1    2 1   
     2    1    4 1   
     3    1    5 1   
     4    1    6 1   
     5    2    3 2   
     6    2    7 1   
     7    7    8 1   
     8    7   15 1   
     9    8    9 1   
    10    8   11 1   
    11    8   16 1   
    12    9   10 2   
    13    9   19 1   
    14   11   12 1   
    15   11   17 1   
    16   11   18 1   
    17   12   13 1   
    18   12   14 1   
    19   19   20 1   
    20   19   24 1   
    21   20   21 1   
    22   20   23 1   
    23   20   25 1   
    24   21   22 2   
    25   21   29 1   
    26   23   26 1   
    27   23   27 1   
    28   23   28 1   
    29   29   30 1   
    30   29   37 1   
    31   30   31 1   
    32   30   33 1   
    33   30   38 1   
    34   31   32 2   
    35   31   41 1   
    36   33   34 1   
    37   33   39 1   
    38   33   40 1   
    39   34   35 1   
    40   34   36 1   
    41   41   42 1   
    42   41   45 1   
    43   42   43 1   
    44   42   46 1   
    45   42   47 1   
    46   43   44 2   
    47   43   48 1   
    48   48   49 1   
    49   48   56 1   
    50   49   50 1   
    51   49   52 1   
    52   49   57 1   
    53   50   51 2   
    54   50   62 1   
    55   52   53 1   
    56   52   58 1   
    57   52   59 1   
    58   53   54 1   
    59   53   55 2   
    60   54   60 1   
    61   54   61 1   
    62   62   63 1   
    63   62   66 1   
    64   63   64 1   
    65   63   67 1   
    66   63   68 1   
    67   64   65 2   
    68   64   69 1   
    69   69   70 1   
    70   69   76 1   
    71   70   71 1   
    72   70   73 1   
    73   70   77 1   
    74   71   72 2   
    75   71   83 1   
    76   73   74 1   
    77   73   75 1   
    78   73   78 1   
    79   74   80 1   
    80   74   81 1   
    81   74   82 1   
    82   75   79 1   
    83   83   84 1   
    84   83   91 1   
    85   84   85 1   
    86   84   87 1   
    87   84   92 1   
    88   85   86 2   
    89   85  102 1   
    90   87   88 1   
    91   87   89 1   
    92   87   93 1   
    93   88   90 1   
    94   88   94 1   
    95   88   95 1   
    96   89   96 1   
    97   89   97 1   
    98   89   98 1   
    99   90   99 1   
   100   90  100 1   
   101   90  101 1   
   102  102  103 1   
   103  102  110 1   
   104  103  104 1   
   105  103  106 1   
   106  103  111 1   
   107  104  105 2   
   108  104  114 1   
   109  106  107 1   
   110  106  112 1   
   111  106  113 1   
   112  107  108 1   
   113  107  109 1   
   114  114  115 1   
   115  114  125 1   
   116  115  116 1   
   117  115  118 1   
   118  115  126 1   
   119  116  117 2   
   120  116  134 1   
   121  118  119 1   
   122  118  127 1   
   123  118  128 1   
   124  119  120 ar  
   125  119  121 ar  
   126  120  122 ar  
   127  120  129 1   
   128  121  123 ar  
   129  121  130 1   
   130  122  124 ar  
   131  122  131 1   
   132  123  124 ar  
   133  123  132 1   
   134  124  133 1   
   135  134  135 1   
   136  134  140 1   
   137  135  136 1   
   138  135  138 1   
   139  135  141 1   
   140  136  137 2   
   141  136  148 1   
   142  138  139 1   
   143  138  142 1   
   144  138  143 1   
   145  139  140 1   
   146  139  144 1   
   147  139  145 1   
   148  140  146 1   
   149  140  147 1   
   150  148  149 1   
   151  148  157 1   
   152  149  150 1   
   153  149  152 1   
   154  149  158 1   
   155  150  151 2   
   156  150  163 1   
   157  152  153 1   
   158  152  159 1   
   159  152  160 1   
   160  153  154 1   
   161  153  161 1   
   162  153  162 1   
   163  154  155 1   
   164  154  156 1   
   165  163  164 1   
   166  163  168 1   
   167  164  165 1   
   168  164  166 1   
   169  164  167 1   
   170  170  171 1   
   171  170  172 1   
   172  173  174 1   
   173  173  175 1   
@<TRIPOS>SUBSTRUCTURE
     1 MOL         1 TEMP              0 ****  ****    0 ROOT
