@<TRIPOS>MOLECULE
MOL
  189   185     1     0     0
SMALL
resp


@<TRIPOS>ATOM
      1 C1         -0.1270    2.2120    5.8460 c3        1 MOL     -0.332524
      2 C2         -0.5050    1.9090    4.3960 c         1 MOL      0.663559
      3 O1          0.3240    2.0400    3.5000 o         1 MOL     -0.556496
      4 H1         -1.0250    2.4640    6.4090 hc        1 MOL      0.088988
      5 H2          0.3460    1.3370    6.2900 hc        1 MOL      0.088988
      6 H3          0.5660    3.0530    5.8720 hc        1 MOL      0.088988
      7 N1         -1.7610    1.6230    4.0570 n         1 MOL     -0.618894
      8 C3         -2.2970    1.3930    2.6850 c3        1 MOL      0.137508
      9 C4         -2.6430    2.7690    2.1100 c         1 MOL      0.505207
     10 O2         -3.7630    3.2880    2.1120 o         1 MOL     -0.499273
     11 C5         -3.5080    0.4440    2.7420 c3        1 MOL     -0.155430
     12 C6         -4.1020    0.1410    1.3460 c         1 MOL      0.703507
     13 O3         -3.3750    0.4050    0.3810 o         1 MOL     -0.597560
     14 O4         -5.2490   -0.3150    1.2990 o         1 MOL     -0.597560
     15 H4         -2.4050    1.5360    4.8340 hn        1 MOL      0.332117
     16 H5         -1.5060    0.8620    2.1560 h1        1 MOL      0.061452
     17 H6         -4.2830    0.9060    3.3480 hc        1 MOL      0.024757
     18 H7         -3.1990   -0.4450    3.2800 hc        1 MOL      0.024757
     19 N2         -1.6150    3.4410    1.5310 n         1 MOL     -0.483517
     20 C7         -1.5490    4.8640    1.0950 c3        1 MOL     -0.040209
     21 C8         -2.5130    5.0620   -0.1060 c         1 MOL      0.467540
     22 O5         -3.0430    6.1440   -0.2850 o         1 MOL     -0.571798
     23 C9         -0.0870    5.2590    0.8610 c3        1 MOL     -0.053115
     24 C10         0.8150    5.2000    2.0660 c3        1 MOL      0.026727
     25 C11         0.2550    5.8960    3.3480 c3        1 MOL     -0.140211
     26 C12        -0.1390    7.3780    3.2130 c3        1 MOL      0.211703
     27 N3         -0.7520    7.7930    4.4650 n4        1 MOL     -0.476255
     28 H8         -0.7720    2.8920    1.4020 hn        1 MOL      0.478405
     29 H9         -1.9530    5.5460    1.8430 h1        1 MOL      0.075043
     30 H10        -0.1430    6.3270    0.6320 hc        1 MOL      0.028058
     31 H11         0.3800    4.6530    0.0910 hc        1 MOL      0.028058
     32 H12         1.7030    5.6910    1.6880 hc        1 MOL      0.030063
     33 H13         1.0370    4.1640    2.3280 hc        1 MOL      0.030063
     34 H14         1.0250    5.8650    4.1150 hc        1 MOL      0.042264
     35 H15        -0.5600    5.3050    3.7710 hc        1 MOL      0.042264
     36 H16        -0.7940    7.5620    2.3640 hx        1 MOL      0.043815
     37 H17         0.7520    7.9810    3.0180 hx        1 MOL      0.043815
     38 H18        -0.1200    7.8230    5.2640 hn        1 MOL      0.352029
     39 H19        -0.9620    8.7780    4.4550 hn        1 MOL      0.352029
     40 H20        -1.5750    7.2450    4.6320 hn        1 MOL      0.352029
     41 N4         -2.7150    4.0360   -0.9740 n         1 MOL     -0.140719
     42 C13        -3.4880    4.1310   -2.2520 c3        1 MOL      0.072771
     43 C14        -4.8520    3.4000   -2.2760 c         1 MOL      0.277040
     44 O6         -5.6470    3.6080   -3.2470 o         1 MOL     -0.483313
     45 C15        -2.6160    3.8590   -3.4530 c3        1 MOL     -0.224608
     46 C16        -2.1090    2.3520   -3.5770 c         1 MOL      0.890422
     47 O7         -1.2680    2.0680   -4.4640 o         1 MOL     -0.746053
     48 O8         -2.6230    1.4850   -2.7950 o         1 MOL     -0.746053
     49 H21        -2.3130    3.1540   -0.7010 hn        1 MOL      0.013437
     50 H22        -3.7250    5.1850   -2.4010 h1        1 MOL      0.094415
     51 H23        -1.7850    4.5460   -3.3090 hc        1 MOL      0.035023
     52 H24        -3.2010    4.1950   -4.3100 hc        1 MOL      0.035023
     53 N5         -5.1880    2.5940   -1.2350 n         1 MOL      0.105750
     54 C17        -6.4670    2.1160   -0.8450 c3        1 MOL     -0.243319
     55 C18        -7.0250    0.9610   -1.6490 c         1 MOL      0.626322
     56 O9         -7.9270    1.0650   -2.4390 o         1 MOL     -0.569335
     57 H25        -4.4790    2.3730   -0.5530 hn        1 MOL      0.040541
     58 H26        -7.1660    2.9440   -0.7820 h1        1 MOL      0.078058
     59 H27        -6.3510    1.6530    0.1390 h1        1 MOL      0.078058
     60 N6         -6.3760   -0.1680   -1.4350 n         1 MOL     -0.270091
     61 C19        -6.8160   -1.4370   -2.1280 c3        1 MOL      0.116268
     62 C20        -7.0760   -2.5750   -1.2000 c         1 MOL      0.354761
     63 O10        -7.7130   -3.5780   -1.5390 o         1 MOL     -0.544100
     64 C21        -5.8100   -1.7470   -3.2420 c3        1 MOL     -0.294391
     65 C22        -4.3800   -1.7880   -2.7220 c         1 MOL      0.793840
     66 O11        -3.5380   -1.2590   -3.5190 o         1 MOL     -0.716457
     67 O12        -4.0180   -2.2760   -1.6200 o         1 MOL     -0.716457
     68 H28        -5.6410   -0.2190   -0.7360 hn        1 MOL     -0.008869
     69 H29        -7.8100   -1.2650   -2.5350 h1        1 MOL      0.070612
     70 H30        -5.8700   -1.0190   -4.0550 hc        1 MOL      0.092314
     71 H31        -6.0010   -2.7620   -3.6070 hc        1 MOL      0.092314
     72 N7         -6.6290   -2.4780    0.0350 n         1 MOL     -0.122888
     73 C23        -6.6800   -3.4280    1.1720 c3        1 MOL     -0.210227
     74 C24        -5.4660   -4.2960    1.3600 c         1 MOL      0.556804
     75 O13        -5.6070   -5.2900    2.0890 o         1 MOL     -0.577598
     76 H32        -6.2070   -1.5760    0.2350 hn        1 MOL      0.146323
     77 H33        -7.4960   -4.1260    0.9740 h1        1 MOL      0.115762
     78 H34        -6.9330   -2.9300    2.1120 h1        1 MOL      0.115762
     79 N8         -4.3140   -3.9820    0.7760 n         1 MOL     -0.206497
     80 C25        -2.9580   -4.5900    1.0840 c3        1 MOL     -0.355428
     81 C26        -1.8360   -3.5790    1.0820 c         1 MOL      0.783228
     82 O14        -1.8760   -2.5930    0.3090 o         1 MOL     -0.678029
     83 C27        -2.5430   -5.6920    0.0750 c3        1 MOL      0.502156
     84 C28        -3.2960   -7.0210    0.1600 c3        1 MOL     -0.437596
     85 O15        -2.6500   -5.1500   -1.2650 oh        1 MOL     -0.609756
     86 H35        -4.3080   -3.1500    0.2050 hn        1 MOL      0.200708
     87 H36        -2.9910   -5.0240    2.0860 h1        1 MOL      0.120550
     88 H37        -1.5090   -5.9290    0.3130 h1        1 MOL     -0.006748
     89 H38        -3.3460   -4.4910   -1.2220 ho        1 MOL      0.365532
     90 H39        -2.9580   -7.6910   -0.6340 hc        1 MOL      0.114790
     91 H40        -3.1670   -7.4820    1.1390 hc        1 MOL      0.114790
     92 H41        -4.3680   -6.8170    0.0770 hc        1 MOL      0.114790
     93 N9         -0.8220   -3.7790    1.8990 n         1 MOL     -0.553537
     94 C29         0.3830   -2.9570    1.8600 c3        1 MOL      0.099788
     95 C30         1.4820   -3.5550    1.0520 c         1 MOL      0.348838
     96 O16         1.6820   -4.7730    1.0000 o         1 MOL     -0.545301
     97 C31         0.9120   -2.7470    3.3200 c3        1 MOL      0.212465
     98 C32        -0.1730   -2.1720    4.2290 c3        1 MOL      0.005987
     99 C33         2.1320   -1.7800    3.4090 c3        1 MOL     -0.556924
    100 C34        -0.0230   -2.5310    5.7500 c3        1 MOL     -0.300677
    101 H42        -0.8210   -4.5830    2.5080 hn        1 MOL      0.300005
    102 H43         0.1320   -2.0160    1.3750 h1        1 MOL      0.053400
    103 H44         1.0880   -3.7450    3.7130 hc        1 MOL      0.007267
    104 H45        -1.1630   -2.3230    3.7780 hc        1 MOL      0.030872
    105 H46        -0.1190   -1.0800    4.2370 hc        1 MOL      0.030872
    106 H47         2.9630   -2.2530    2.8760 hc        1 MOL      0.123095
    107 H48         1.9860   -0.8090    2.9400 hc        1 MOL      0.123095
    108 H49         2.3100   -1.5560    4.4590 hc        1 MOL      0.123095
    109 H50         0.4210   -3.5220    5.8540 hc        1 MOL      0.076920
    110 H51         0.5490   -1.7730    6.2860 hc        1 MOL      0.076920
    111 H52        -0.9920   -2.6220    6.2250 hc        1 MOL      0.076920
    112 N10         2.2670   -2.7140    0.3540 n         1 MOL     -0.019803
    113 C35         3.4190   -3.1050   -0.4750 c3        1 MOL     -0.037136
    114 C36         4.7300   -2.8150    0.2560 c         1 MOL      0.363723
    115 O17         4.7620   -2.0920    1.2320 o         1 MOL     -0.376072
    116 C37         3.3390   -2.3380   -1.7860 c3        1 MOL     -0.113067
    117 C38         2.0970   -2.6470   -2.5750 c3        1 MOL     -0.062187
    118 O18         3.2810   -0.9270   -1.6070 oh        1 MOL     -0.373882
    119 H53         2.0460   -1.7420    0.2790 hn        1 MOL      0.268995
    120 H54         3.4910   -4.1870   -0.6380 h1        1 MOL      0.087438
    121 H55         4.2220   -2.5320   -2.4010 h1        1 MOL      0.091556
    122 H56         2.3690   -0.6290   -1.4820 ho        1 MOL      0.267179
    123 H57         1.9370   -3.6600   -2.9200 hc        1 MOL      0.046313
    124 H58         1.2620   -2.3920   -1.9110 hc        1 MOL      0.046313
    125 H59         2.0970   -2.0130   -3.4590 hc        1 MOL      0.046313
    126 N11         5.8630   -3.3440   -0.2150 n         1 MOL     -0.270238
    127 C39         7.2310   -2.9200    0.1740 c3        1 MOL     -0.288330
    128 C40         7.4230   -1.4210   -0.0330 c         1 MOL      0.144155
    129 O19         8.2150   -0.8570    0.7620 o         1 MOL     -0.440720
    130 C41         8.4010   -3.6320   -0.6150 c3        1 MOL      0.474992
    131 C42         8.7980   -4.9720    0.0470 c3        1 MOL     -0.366818
    132 O20         8.1370   -3.8940   -1.9380 oh        1 MOL     -0.612744
    133 H60         5.8920   -3.9910   -0.9860 hn        1 MOL      0.286021
    134 H61         7.3900   -3.1660    1.2230 h1        1 MOL      0.196094
    135 H62         9.3760   -3.1600   -0.4970 h1        1 MOL      0.031988
    136 H63         8.8200   -3.4730   -2.4640 ho        1 MOL      0.387255
    137 H64         7.9880   -5.6830   -0.1230 hc        1 MOL      0.093371
    138 H65         9.7140   -5.2220   -0.4840 hc        1 MOL      0.093371
    139 H66         9.0300   -4.8080    1.1030 hc        1 MOL      0.093371
    140 N12         6.7730   -0.8020   -1.0070 n         1 MOL      0.046164
    141 C43         6.8480    0.6370   -1.3880 c3        1 MOL     -0.263561
    142 C44         6.0620    1.5730   -0.4400 c         1 MOL      0.534374
    143 O21         6.5680    2.6380   -0.0380 o         1 MOL     -0.531427
    144 C45         6.4040    0.7150   -2.8520 c3        1 MOL     -0.006404
    145 C46         6.6740    2.1890   -3.5050 c3        1 MOL     -0.031320
    146 C47         6.0770    2.4470   -4.8800 c3        1 MOL     -0.055831
    147 C48         6.4610    3.8980   -5.1520 c3        1 MOL      0.220768
    148 N13         5.8610    4.4140   -6.3860 n4        1 MOL     -0.444888
    149 H67         6.2570   -1.3850   -1.6510 hn        1 MOL      0.129026
    150 H68         7.9070    0.8750   -1.3300 h1        1 MOL      0.128498
    151 H69         5.3420    0.4960   -2.8940 hc        1 MOL      0.035796
    152 H70         6.9410   -0.0650   -3.4030 hc        1 MOL      0.035796
    153 H71         7.7320    2.3560   -3.7100 hc        1 MOL      0.037466
    154 H72         6.2900    2.9150   -2.7890 hc        1 MOL      0.037466
    155 H73         4.9870    2.3570   -4.7880 hc        1 MOL      0.026261
    156 H74         6.5370    1.8330   -5.6490 hc        1 MOL      0.026261
    157 H75         7.5480    3.9180   -5.1910 hx        1 MOL      0.034827
    158 H76         6.2750    4.4910   -4.2540 hx        1 MOL      0.034827
    159 H77         6.3500    4.0000   -7.1770 hn        1 MOL      0.343277
    160 H78         4.9260    4.0470   -6.4630 hn        1 MOL      0.343277
    161 H79         5.9940    5.4140   -6.3350 hn        1 MOL      0.343277
    162 N14         4.8730    1.1010   -0.0220 n         1 MOL     -0.056425
    163 C49         4.0600    1.6740    1.0320 c3        1 MOL     -0.245479
    164 C50         4.7400    1.6360    2.3880 c         1 MOL      0.623174
    165 O22         4.9880    2.6690    2.9900 o         1 MOL     -0.562454
    166 C51         2.6620    1.0450    1.1040 c3        1 MOL      0.247310
    167 C52         1.8080    1.6020   -0.0290 c3        1 MOL     -0.077526
    168 C53         0.6460    0.7570   -0.3740 c         1 MOL      0.589756
    169 O23         0.7770   -0.4790   -0.4990 o         1 MOL     -0.709668
    170 O24        -0.4830    1.2860   -0.3540 o         1 MOL     -0.709668
    171 H80         4.5590    0.1920   -0.3290 hn        1 MOL     -0.010601
    172 H81         3.8550    2.7440    0.9050 h1        1 MOL      0.051329
    173 H82         2.1100    1.3040    2.0100 hc        1 MOL     -0.059609
    174 H83         2.7650   -0.0330    1.0500 hc        1 MOL     -0.059609
    175 H84         2.4410    1.5880   -0.9040 hc        1 MOL      0.017705
    176 H85         1.6600    2.6710    0.1330 hc        1 MOL      0.017705
    177 N15         4.9850    0.3730    2.8560 n         1 MOL     -0.298666
    178 C54         5.7300    0.1590    4.0840 c3        1 MOL     -0.203342
    179 H86         6.7900    0.0520    3.8520 h1        1 MOL      0.089916
    180 H87         5.5880    1.0110    4.7490 h1        1 MOL      0.089916
    181 H88         5.3740   -0.7480    4.5730 h1        1 MOL      0.089916
    182 H89         4.8040   -0.3660    2.1910 hn        1 MOL      0.296014
    183 Ca1        -1.8850   -0.5920   -1.4730 Ca        1 MOL      1.765537
    184 O25        -1.1030   -2.9070   -2.5750 oh        1 MOL     -0.852502
    185 H90        -0.8180   -3.3420   -3.3800 ho        1 MOL      0.398692
    186 H91        -1.6290   -3.5630   -2.1200 ho        1 MOL      0.398692
    187 O26         0.0880    0.1490   -3.3970 oh        1 MOL     -0.852502
    188 H92        -0.3160    0.9330   -3.7820 ho        1 MOL      0.398692
    189 H93         0.8710    0.0050   -3.9330 ho        1 MOL      0.398692
@<TRIPOS>BOND
     1    1    2 1   
     2    1    4 1   
     3    1    5 1   
     4    1    6 1   
     5    2    3 2   
     6    2    7 1   
     7    7    8 1   
     8    7   15 1   
     9    8    9 1   
    10    8   11 1   
    11    8   16 1   
    12    9   10 2   
    13    9   19 1   
    14   11   12 1   
    15   11   17 1   
    16   11   18 1   
    17   12   13 1   
    18   12   14 1   
    19   19   20 1   
    20   19   28 1   
    21   20   21 1   
    22   20   23 1   
    23   20   29 1   
    24   21   22 2   
    25   21   41 1   
    26   23   24 1   
    27   23   30 1   
    28   23   31 1   
    29   24   25 1   
    30   24   32 1   
    31   24   33 1   
    32   25   26 1   
    33   25   34 1   
    34   25   35 1   
    35   26   27 1   
    36   26   36 1   
    37   26   37 1   
    38   27   38 1   
    39   27   39 1   
    40   27   40 1   
    41   41   42 1   
    42   41   49 1   
    43   42   43 1   
    44   42   45 1   
    45   42   50 1   
    46   43   44 2   
    47   43   53 1   
    48   45   46 1   
    49   45   51 1   
    50   45   52 1   
    51   46   47 1   
    52   46   48 1   
    53   53   54 1   
    54   53   57 1   
    55   54   55 1   
    56   54   58 1   
    57   54   59 1   
    58   55   56 2   
    59   55   60 1   
    60   60   61 1   
    61   60   68 1   
    62   61   62 1   
    63   61   64 1   
    64   61   69 1   
    65   62   63 2   
    66   62   72 1   
    67   64   65 1   
    68   64   70 1   
    69   64   71 1   
    70   65   66 1   
    71   65   67 1   
    72   72   73 1   
    73   72   76 1   
    74   73   74 1   
    75   73   77 1   
    76   73   78 1   
    77   74   75 2   
    78   74   79 1   
    79   79   80 1   
    80   79   86 1   
    81   80   81 1   
    82   80   83 1   
    83   80   87 1   
    84   81   82 2   
    85   81   93 1   
    86   83   84 1   
    87   83   85 1   
    88   83   88 1   
    89   84   90 1   
    90   84   91 1   
    91   84   92 1   
    92   85   89 1   
    93   93   94 1   
    94   93  101 1   
    95   94   95 1   
    96   94   97 1   
    97   94  102 1   
    98   95   96 2   
    99   95  112 1   
   100   97   98 1   
   101   97   99 1   
   102   97  103 1   
   103   98  100 1   
   104   98  104 1   
   105   98  105 1   
   106   99  106 1   
   107   99  107 1   
   108   99  108 1   
   109  100  109 1   
   110  100  110 1   
   111  100  111 1   
   112  112  113 1   
   113  112  119 1   
   114  113  114 1   
   115  113  116 1   
   116  113  120 1   
   117  114  115 2   
   118  114  126 1   
   119  116  117 1   
   120  116  118 1   
   121  116  121 1   
   122  117  123 1   
   123  117  124 1   
   124  117  125 1   
   125  118  122 1   
   126  126  127 1   
   127  126  133 1   
   128  127  128 1   
   129  127  130 1   
   130  127  134 1   
   131  128  129 2   
   132  128  140 1   
   133  130  131 1   
   134  130  132 1   
   135  130  135 1   
   136  131  137 1   
   137  131  138 1   
   138  131  139 1   
   139  132  136 1   
   140  140  141 1   
   141  140  149 1   
   142  141  142 1   
   143  141  144 1   
   144  141  150 1   
   145  142  143 2   
   146  142  162 1   
   147  144  145 1   
   148  144  151 1   
   149  144  152 1   
   150  145  146 1   
   151  145  153 1   
   152  145  154 1   
   153  146  147 1   
   154  146  155 1   
   155  146  156 1   
   156  147  148 1   
   157  147  157 1   
   158  147  158 1   
   159  148  159 1   
   160  148  160 1   
   161  148  161 1   
   162  162  163 1   
   163  162  171 1   
   164  163  164 1   
   165  163  166 1   
   166  163  172 1   
   167  164  165 2   
   168  164  177 1   
   169  166  167 1   
   170  166  173 1   
   171  166  174 1   
   172  167  168 1   
   173  167  175 1   
   174  167  176 1   
   175  168  169 1   
   176  168  170 1   
   177  177  178 1   
   178  177  182 1   
   179  178  179 1   
   180  178  180 1   
   181  178  181 1   
   182  184  185 1   
   183  184  186 1   
   184  187  188 1   
   185  187  189 1   
@<TRIPOS>SUBSTRUCTURE
     1 MOL         1 TEMP              0 ****  ****    0 ROOT
