@<TRIPOS>MOLECULE
MOL
  186   183     1     0     0
SMALL
resp


@<TRIPOS>ATOM
      1 C1          1.1610   -1.4510    6.7690 c3        1 MOL     -0.305240
      2 C2          1.2960   -1.5760    5.2510 c         1 MOL      0.746482
      3 O1          0.4210   -2.1480    4.5950 o         1 MOL     -0.588170
      4 H1          2.0360   -0.9380    7.1690 hc        1 MOL      0.074525
      5 H2          0.2640   -0.8800    7.0090 hc        1 MOL      0.074525
      6 H3          1.0900   -2.4450    7.2100 hc        1 MOL      0.074525
      7 N1          2.3600   -1.1440    4.6020 n         1 MOL     -0.662011
      8 C3          2.6690   -1.4640    3.1960 c3        1 MOL      0.281006
      9 C4          2.8870   -2.9860    2.9910 c         1 MOL      0.479146
     10 O2          3.4010   -3.7180    3.8320 o         1 MOL     -0.576290
     11 C5          3.9430   -0.7140    2.8090 c3        1 MOL     -0.126821
     12 C6          4.4010   -0.8000    1.3590 c         1 MOL      0.736547
     13 O3          5.6680   -0.7220    1.1950 o         1 MOL     -0.661305
     14 O4          3.6240   -0.9130    0.3910 o         1 MOL     -0.661305
     15 H4          3.1610   -0.9250    5.1730 hn        1 MOL      0.312341
     16 H5          1.8430   -1.2120    2.5380 h1        1 MOL      0.044651
     17 H6          4.7560   -1.0860    3.4370 hc        1 MOL      0.010770
     18 H7          3.8530    0.3430    3.0480 hc        1 MOL      0.010770
     19 N2          2.4530   -3.4430    1.8080 n         1 MOL     -0.291227
     20 C7          2.5180   -4.8970    1.3740 c3        1 MOL      0.035212
     21 C8          3.5200   -4.9930    0.2080 c         1 MOL      0.608351
     22 O5          4.3110   -5.9530    0.1670 o         1 MOL     -0.603101
     23 C9          1.1080   -5.4030    1.0490 c3        1 MOL      0.147710
     24 C10         0.2520   -5.5400    2.3740 c3        1 MOL     -0.083247
     25 C11         1.0260   -6.6710    0.1480 c3        1 MOL     -0.280818
     26 C12        -1.2550   -5.9450    2.1360 c3        1 MOL     -0.373643
     27 H8          2.0090   -2.7520    1.2310 hn        1 MOL     -0.053597
     28 H9          2.8050   -5.5500    2.1940 h1        1 MOL      0.037091
     29 H10         0.6580   -4.6360    0.4210 hc        1 MOL      0.068235
     30 H11         0.0910   -4.6760    3.0130 hc        1 MOL      0.074914
     31 H12         0.6490   -6.2420    3.0980 hc        1 MOL      0.074914
     32 H13         0.0390   -6.6900   -0.3140 hc        1 MOL      0.063551
     33 H14         1.8030   -6.6840   -0.6190 hc        1 MOL      0.063551
     34 H15         1.1370   -7.4940    0.8620 hc        1 MOL      0.063551
     35 H16        -1.4180   -6.5220    1.2240 hc        1 MOL      0.090563
     36 H17        -1.5190   -6.4300    3.0800 hc        1 MOL      0.090563
     37 H18        -1.9350   -5.1030    1.9750 hc        1 MOL      0.090563
     38 N3          3.5620   -4.0060   -0.7380 n         1 MOL     -0.550222
     39 C13         4.4120   -4.1500   -1.9980 c3        1 MOL      0.139915
     40 C14         5.7570   -3.3980   -1.9570 c         1 MOL      0.411810
     41 O6          6.4010   -3.4120   -3.0350 o         1 MOL     -0.507083
     42 C15         3.6230   -3.9270   -3.2840 c3        1 MOL     -0.174823
     43 C16         3.0280   -2.5660   -3.4660 c         1 MOL      0.910448
     44 O7          1.9180   -2.4520   -4.0770 o         1 MOL     -0.785127
     45 O8          3.5050   -1.6400   -2.8430 o         1 MOL     -0.785127
     46 H19         2.9990   -3.1630   -0.6930 hn        1 MOL      0.389009
     47 H20         4.7580   -5.1750   -2.0810 h1        1 MOL      0.063509
     48 H21         2.8420   -4.6900   -3.3880 hc        1 MOL      0.016914
     49 H22         4.3400   -4.0120   -4.1010 hc        1 MOL      0.016914
     50 N4          6.2170   -2.7640   -0.8810 n         1 MOL     -0.229712
     51 C17         7.5460   -2.2900   -0.8160 c3        1 MOL     -0.099297
     52 C18         7.8510   -0.9340   -1.4350 c         1 MOL      0.557184
     53 O9          8.7600   -0.9300   -2.2230 o         1 MOL     -0.593669
     54 H23         5.5650   -2.4370   -0.1830 hn        1 MOL      0.216946
     55 H24         8.2350   -2.9670   -1.3270 h1        1 MOL      0.046994
     56 H25         7.8620   -2.1540    0.2220 h1        1 MOL      0.046994
     57 N5          7.0940    0.1170   -1.1760 n         1 MOL     -0.237267
     58 C19         7.3850    1.5080   -1.6650 c3        1 MOL     -0.032143
     59 C20         7.2410    2.5410   -0.5070 c         1 MOL      0.442587
     60 O10         7.6350    3.6160   -0.7840 o         1 MOL     -0.541214
     61 C21         6.3530    1.9560   -2.7540 c3        1 MOL     -0.000653
     62 C22         4.8920    1.5790   -2.4540 c         1 MOL      0.765184
     63 O11         4.4840    1.5180   -1.2760 o         1 MOL     -0.753268
     64 O12         4.1060    1.4250   -3.4230 o         1 MOL     -0.753268
     65 H26         6.3170   -0.0370   -0.5470 hn        1 MOL      0.104832
     66 H27         8.3990    1.6010   -2.0480 h1        1 MOL      0.066965
     67 H28         6.5700    1.5400   -3.7330 hc        1 MOL     -0.003003
     68 H29         6.3270    3.0270   -2.9510 hc        1 MOL     -0.003003
     69 N6          6.8010    2.1630    0.6670 n         1 MOL     -0.244928
     70 C23         6.7920    3.1480    1.7470 c3        1 MOL     -0.126020
     71 C24         5.4450    3.9550    1.7920 c         1 MOL      0.511824
     72 O13         5.4280    4.9680    2.5130 o         1 MOL     -0.587640
     73 H30         6.4970    1.2170    0.8690 hn        1 MOL      0.203951
     74 H31         7.6680    3.7710    1.5640 h1        1 MOL      0.085769
     75 H32         6.8690    2.6390    2.6990 h1        1 MOL      0.085769
     76 N7          4.4090    3.5660    1.0420 n         1 MOL     -0.253036
     77 C25         3.0790    4.1780    1.0380 c3        1 MOL     -0.183520
     78 C26         1.9620    3.0790    1.1640 c         1 MOL      0.704996
     79 O14         2.0360    1.9760    0.5830 o         1 MOL     -0.714609
     80 C27         2.9010    4.9230   -0.2340 c3        1 MOL     -0.060820
     81 C28         3.4710    6.3530   -0.0490 c3        1 MOL     -0.292396
     82 C29         3.1220    7.3350   -1.2560 c         1 MOL      0.663782
     83 N8          4.0170    7.3450   -2.2080 n         1 MOL     -0.795737
     84 O15         2.1400    8.0590   -1.1990 o         1 MOL     -0.574996
     85 H33         4.4850    2.8060    0.3800 hn        1 MOL      0.250670
     86 H34         3.0070    4.8680    1.8830 h1        1 MOL      0.105645
     87 H35         1.8390    5.1010   -0.4440 hc        1 MOL      0.086621
     88 H36         3.3320    4.4060   -1.0950 hc        1 MOL      0.086621
     89 H37         4.5440    6.3680    0.1670 hc        1 MOL      0.103873
     90 H38         3.1250    6.9080    0.8250 hc        1 MOL      0.103873
     91 H39         4.8220    6.7290   -2.1430 hn        1 MOL      0.365762
     92 H40         3.8170    7.8500   -3.0590 hn        1 MOL      0.365762
     93 N9          0.8490    3.4510    1.8190 n         1 MOL     -0.515532
     94 C30        -0.3010    2.5750    2.0940 c3        1 MOL      0.130255
     95 C31        -1.4160    2.9790    1.1370 c         1 MOL      0.455551
     96 O16        -2.2230    3.7990    1.5260 o         1 MOL     -0.564229
     97 C32        -0.6920    2.5430    3.5770 c3        1 MOL      0.310520
     98 C33        -1.5490    1.2570    3.7380 c3        1 MOL     -0.319497
     99 C34         0.4350    2.4740    4.5310 c3        1 MOL     -0.319497
    100 H41         0.9030    4.3470    2.2880 hn        1 MOL      0.285475
    101 H42        -0.0010    1.5630    1.8410 h1        1 MOL      0.076778
    102 H43        -1.3200    3.3970    3.8340 hc        1 MOL     -0.047115
    103 H44        -1.9000    1.1770    4.7710 hc        1 MOL      0.060828
    104 H45        -2.3980    1.2150    3.0610 hc        1 MOL      0.060828
    105 H46        -0.9400    0.3940    3.4550 hc        1 MOL      0.060828
    106 H47         1.0320    3.3770    4.3750 hc        1 MOL      0.060828
    107 H48         0.2290    2.4070    5.5970 hc        1 MOL      0.060828
    108 H49         1.1070    1.6960    4.1830 hc        1 MOL      0.060828
    109 N10        -1.5110    2.4290   -0.0510 n         1 MOL     -0.342413
    110 C35        -2.7530    2.5800   -0.8480 c3        1 MOL      0.091289
    111 C36        -4.0840    1.9830   -0.2530 c         1 MOL      0.357075
    112 O17        -4.0370    1.1880    0.6890 o         1 MOL     -0.196324
    113 C37        -2.5120    2.1080   -2.3240 c3        1 MOL     -0.300494
    114 C38        -2.9840    0.7200   -2.7030 c         1 MOL      0.642886
    115 N11        -2.3560   -0.3390   -2.2780 n         1 MOL     -0.716488
    116 O18        -3.9340    0.5290   -3.5070 o         1 MOL     -0.553375
    117 H50        -0.9730    1.5830   -0.1850 hn        1 MOL      0.263708
    118 H51        -2.9640    3.6530   -0.8860 h1        1 MOL      0.079104
    119 H52        -1.4450    2.1700   -2.5460 hc        1 MOL      0.101455
    120 H53        -3.0800    2.7270   -3.0160 hc        1 MOL      0.101455
    121 H54        -1.6130   -0.2270   -1.6080 hn        1 MOL      0.367949
    122 H55        -2.6240   -1.2670   -2.5780 hn        1 MOL      0.367949
    123 N12        -5.2170    2.2420   -0.9130 n         1 MOL     -0.498064
    124 C39        -6.4670    1.8660   -0.3120 c3        1 MOL      0.066681
    125 C40        -6.6380    0.3950   -0.2640 c         1 MOL      0.749985
    126 O19        -7.1520   -0.1680    0.7590 o         1 MOL     -0.579059
    127 C41        -7.6220    2.4730   -1.1270 c3        1 MOL     -0.027469
    128 C42        -8.9520    2.2760   -0.4850 ca        1 MOL      0.005928
    129 C43        -9.3640    3.0130    0.7030 ca        1 MOL     -0.220198
    130 C44        -9.7210    1.3050   -1.0020 ca        1 MOL     -0.220198
    131 C45       -10.6400    2.7540    1.2250 ca        1 MOL     -0.125610
    132 C46       -10.9890    1.0590   -0.4000 ca        1 MOL     -0.125610
    133 C47       -11.4870    1.8280    0.6790 ca        1 MOL      0.235380
    134 O20       -12.6540    1.5840    1.2720 oh        1 MOL     -0.534156
    135 H56        -5.1970    2.7720   -1.7760 hn        1 MOL      0.314922
    136 H57        -6.5410    2.1170    0.7520 h1        1 MOL      0.065626
    137 H58        -7.5560    2.1260   -2.1530 hc        1 MOL      0.042549
    138 H59        -7.5140    3.5530   -1.2730 hc        1 MOL      0.042549
    139 H60        -8.7060    3.7600    1.1100 ha        1 MOL      0.145159
    140 H61        -9.3320    0.6520   -1.7700 ha        1 MOL      0.145159
    141 H62       -11.1200    3.3030    2.0130 ha        1 MOL      0.098549
    142 H63       -11.5990    0.2640   -0.7850 ha        1 MOL      0.098549
    143 H64       -13.1640    0.7890    1.0820 ho        1 MOL      0.405322
    144 N13        -6.1350   -0.2940   -1.3370 n         1 MOL     -0.515843
    145 C48        -6.1450   -1.7930   -1.3350 c3        1 MOL      0.066524
    146 C49        -5.2730   -2.3860   -0.0980 c         1 MOL      0.354406
    147 O21        -5.6030   -3.5310    0.3260 o         1 MOL     -0.514678
    148 C50        -5.7630   -2.2410   -2.7900 c3        1 MOL     -0.140851
    149 C51        -6.8780   -1.8990   -3.8180 c3        1 MOL     -0.139371
    150 C52        -6.6370   -2.5520   -5.2070 c         1 MOL      0.736551
    151 O22        -6.2170   -1.8620   -6.1110 o         1 MOL     -0.748774
    152 O23        -7.0540   -3.7190   -5.3330 o         1 MOL     -0.748774
    153 H65        -5.6170    0.2230   -2.0300 hn        1 MOL      0.245336
    154 H66        -7.1580   -2.1670   -1.1580 h1        1 MOL      0.092043
    155 H67        -5.5860   -3.3100   -2.7370 hc        1 MOL      0.072918
    156 H68        -4.8390   -1.7690   -3.1130 hc        1 MOL      0.072918
    157 H69        -7.0520   -0.8400   -3.9670 hc        1 MOL      0.014466
    158 H70        -7.8360   -2.2050   -3.3790 hc        1 MOL      0.014466
    159 N14        -4.2290   -1.7020    0.3620 n         1 MOL     -0.000707
    160 C53        -3.4640   -2.0730    1.5830 c3        1 MOL      0.027861
    161 C54        -4.2370   -1.6530    2.8920 c         1 MOL      0.408622
    162 O24        -4.1510   -2.3120    3.9310 o         1 MOL     -0.561094
    163 C55        -2.0670   -1.4390    1.5520 c3        1 MOL     -0.020424
    164 C56        -1.2480   -2.1620    0.4690 c3        1 MOL      0.061089
    165 C57        -0.0220   -1.3790    0.0090 c         1 MOL      0.753147
    166 O25         1.0430   -1.9740   -0.2240 o         1 MOL     -0.765445
    167 O26        -0.1540   -0.1690   -0.4570 o         1 MOL     -0.765445
    168 H71        -4.1840   -0.7030    0.2450 hn        1 MOL     -0.322860
    169 H72        -3.3770   -3.1590    1.6120 h1        1 MOL      0.052909
    170 H73        -1.5900   -1.5410    2.5190 hc        1 MOL      0.048188
    171 H74        -2.2170   -0.3810    1.3460 hc        1 MOL      0.048188
    172 H75        -1.7610   -2.2160   -0.4880 hc        1 MOL      0.014362
    173 H76        -0.9930   -3.2000    0.6970 hc        1 MOL      0.014362
    174 N15        -4.8980   -0.4950    2.9200 n         1 MOL      0.092722
    175 C58        -5.7280    0.0030    4.0150 c3        1 MOL     -0.415153
    176 H77        -6.5720   -0.6710    4.1660 h1        1 MOL      0.127696
    177 H78        -5.1350    0.0530    4.9280 h1        1 MOL      0.127696
    178 H79        -6.0980    0.9980    3.7670 h1        1 MOL      0.127696
    179 H80        -4.9070    0.0990    2.0980 hn        1 MOL      0.043664
    180 Ca1         2.2060    0.1750   -1.3990 Ca        1 MOL      1.835596
    181 O27         1.1890    0.0470   -3.7900 oh        1 MOL     -0.895883
    182 H81         1.1660    0.4900   -4.6360 ho        1 MOL      0.416122
    183 H82         1.2240   -0.8870   -4.0060 ho        1 MOL      0.416122
    184 O28         1.3070    2.6050   -2.5280 oh        1 MOL     -0.895883
    185 H83         1.0730    2.2890   -3.4040 ho        1 MOL      0.416122
    186 H84         1.8710    3.3540   -2.6960 ho        1 MOL      0.416122
@<TRIPOS>BOND
     1    1    2 1   
     2    1    4 1   
     3    1    5 1   
     4    1    6 1   
     5    2    3 2   
     6    2    7 1   
     7    7    8 1   
     8    7   15 1   
     9    8    9 1   
    10    8   11 1   
    11    8   16 1   
    12    9   10 2   
    13    9   19 1   
    14   11   12 1   
    15   11   17 1   
    16   11   18 1   
    17   12   13 1   
    18   12   14 1   
    19   19   20 1   
    20   19   27 1   
    21   20   21 1   
    22   20   23 1   
    23   20   28 1   
    24   21   22 2   
    25   21   38 1   
    26   23   24 1   
    27   23   25 1   
    28   23   29 1   
    29   24   26 1   
    30   24   30 1   
    31   24   31 1   
    32   25   32 1   
    33   25   33 1   
    34   25   34 1   
    35   26   35 1   
    36   26   36 1   
    37   26   37 1   
    38   38   39 1   
    39   38   46 1   
    40   39   40 1   
    41   39   42 1   
    42   39   47 1   
    43   40   41 2   
    44   40   50 1   
    45   42   43 1   
    46   42   48 1   
    47   42   49 1   
    48   43   44 1   
    49   43   45 1   
    50   50   51 1   
    51   50   54 1   
    52   51   52 1   
    53   51   55 1   
    54   51   56 1   
    55   52   53 2   
    56   52   57 1   
    57   57   58 1   
    58   57   65 1   
    59   58   59 1   
    60   58   61 1   
    61   58   66 1   
    62   59   60 2   
    63   59   69 1   
    64   61   62 1   
    65   61   67 1   
    66   61   68 1   
    67   62   63 1   
    68   62   64 1   
    69   69   70 1   
    70   69   73 1   
    71   70   71 1   
    72   70   74 1   
    73   70   75 1   
    74   71   72 2   
    75   71   76 1   
    76   76   77 1   
    77   76   85 1   
    78   77   78 1   
    79   77   80 1   
    80   77   86 1   
    81   78   79 2   
    82   78   93 1   
    83   80   81 1   
    84   80   87 1   
    85   80   88 1   
    86   81   82 1   
    87   81   89 1   
    88   81   90 1   
    89   82   83 1   
    90   82   84 2   
    91   83   91 1   
    92   83   92 1   
    93   93   94 1   
    94   93  100 1   
    95   94   95 1   
    96   94   97 1   
    97   94  101 1   
    98   95   96 2   
    99   95  109 1   
   100   97   98 1   
   101   97   99 1   
   102   97  102 1   
   103   98  103 1   
   104   98  104 1   
   105   98  105 1   
   106   99  106 1   
   107   99  107 1   
   108   99  108 1   
   109  109  110 1   
   110  109  117 1   
   111  110  111 1   
   112  110  113 1   
   113  110  118 1   
   114  111  112 2   
   115  111  123 1   
   116  113  114 1   
   117  113  119 1   
   118  113  120 1   
   119  114  115 1   
   120  114  116 2   
   121  115  121 1   
   122  115  122 1   
   123  123  124 1   
   124  123  135 1   
   125  124  125 1   
   126  124  127 1   
   127  124  136 1   
   128  125  126 2   
   129  125  144 1   
   130  127  128 1   
   131  127  137 1   
   132  127  138 1   
   133  128  129 ar  
   134  128  130 ar  
   135  129  131 ar  
   136  129  139 1   
   137  130  132 ar  
   138  130  140 1   
   139  131  133 ar  
   140  131  141 1   
   141  132  133 ar  
   142  132  142 1   
   143  133  134 1   
   144  134  143 1   
   145  144  145 1   
   146  144  153 1   
   147  145  146 1   
   148  145  148 1   
   149  145  154 1   
   150  146  147 2   
   151  146  159 1   
   152  148  149 1   
   153  148  155 1   
   154  148  156 1   
   155  149  150 1   
   156  149  157 1   
   157  149  158 1   
   158  150  151 1   
   159  150  152 1   
   160  159  160 1   
   161  159  168 1   
   162  160  161 1   
   163  160  163 1   
   164  160  169 1   
   165  161  162 2   
   166  161  174 1   
   167  163  164 1   
   168  163  170 1   
   169  163  171 1   
   170  164  165 1   
   171  164  172 1   
   172  164  173 1   
   173  165  166 1   
   174  165  167 1   
   175  174  175 1   
   176  174  179 1   
   177  175  176 1   
   178  175  177 1   
   179  175  178 1   
   180  181  182 1   
   181  181  183 1   
   182  184  185 1   
   183  184  186 1   
@<TRIPOS>SUBSTRUCTURE
     1 MOL         1 TEMP              0 ****  ****    0 ROOT
