@<TRIPOS>MOLECULE
MOL
  189   185     1     0     0
SMALL
resp


@<TRIPOS>ATOM
      1 C1          0.2890    0.9680    6.0160 c3        1 MOL     -0.305404
      2 C2         -0.2280    1.2370    4.5900 c         1 MOL      0.740289
      3 O1          0.5050    1.7090    3.7230 o         1 MOL     -0.641362
      4 H1          1.2140    1.5230    6.1770 hc        1 MOL      0.074762
      5 H2         -0.4590    1.2900    6.7410 hc        1 MOL      0.074762
      6 H3          0.4790   -0.0980    6.1390 hc        1 MOL      0.074762
      7 N1         -1.4420    0.8280    4.4010 n         1 MOL     -0.502588
      8 C3         -2.1920    0.9330    3.1680 c3        1 MOL      0.042905
      9 C4         -2.5880    2.4340    2.9030 c         1 MOL      0.432426
     10 O2         -3.5360    2.9840    3.5320 o         1 MOL     -0.525959
     11 C5         -3.4350    0.0500    3.2020 c3        1 MOL     -0.051039
     12 C6         -4.1380   -0.0910    1.8340 c         1 MOL      0.686829
     13 O3         -3.5590    0.5510    0.9200 o         1 MOL     -0.687022
     14 O4         -5.2240   -0.7140    1.6510 o         1 MOL     -0.687022
     15 H4         -2.0250    0.5960    5.1900 hn        1 MOL      0.300994
     16 H5         -1.5860    0.5520    2.3580 h1        1 MOL      0.047002
     17 H6         -4.1300    0.2760    4.0050 hc        1 MOL      0.012926
     18 H7         -3.1120   -0.9590    3.4520 hc        1 MOL      0.012926
     19 N2         -1.8540    3.1510    1.9790 n         1 MOL     -0.156427
     20 C7         -1.8750    4.5410    1.7530 c3        1 MOL     -0.088275
     21 C8         -3.2330    4.9280    1.0600 c         1 MOL      0.484323
     22 O5         -3.5960    6.1070    1.0570 o         1 MOL     -0.579929
     23 C9         -0.6920    5.1220    0.8780 c3        1 MOL     -0.147747
     24 C10        -0.6310    4.6410   -0.5890 c3        1 MOL      0.147586
     25 C11         0.3690    5.4720   -1.3900 c3        1 MOL     -0.102240
     26 C12         0.3540    5.0390   -2.8620 c3        1 MOL      0.094518
     27 N3         -0.9870    5.3650   -3.5450 n4        1 MOL     -0.503120
     28 H8         -1.0920    2.6730    1.5250 hn        1 MOL      0.194463
     29 H9         -1.9430    5.0360    2.7300 h1        1 MOL      0.096478
     30 H10         0.2690    4.9230    1.3440 hc        1 MOL      0.073565
     31 H11        -0.7960    6.1920    1.0020 hc        1 MOL      0.073565
     32 H12        -1.6130    4.6510   -1.0420 hc        1 MOL     -0.040788
     33 H13        -0.3330    3.5900   -0.5870 hc        1 MOL     -0.040788
     34 H14         1.3880    5.3780   -1.0050 hc        1 MOL      0.043802
     35 H15         0.1750    6.5500   -1.3520 hc        1 MOL      0.043802
     36 H16         0.6730    4.0100   -2.9800 hx        1 MOL      0.045166
     37 H17         1.0520    5.6560   -3.4300 hx        1 MOL      0.045166
     38 H18        -0.9250    5.3020   -4.5600 hn        1 MOL      0.352479
     39 H19        -1.6710    4.6810   -3.2340 hn        1 MOL      0.352479
     40 H20        -1.2610    6.2770   -3.2190 hn        1 MOL      0.352479
     41 N4         -3.8760    4.0270    0.3280 n         1 MOL     -0.316738
     42 C13        -5.0320    4.2650   -0.5740 c3        1 MOL      0.128803
     43 C14        -6.2200    3.2500   -0.2890 c         1 MOL      0.309503
     44 O6         -7.1970    3.2030   -1.0060 o         1 MOL     -0.461934
     45 C15        -4.4910    4.3530   -2.0840 c3        1 MOL     -0.240139
     46 C16        -3.5940    3.2290   -2.4940 c         1 MOL      0.929678
     47 O7         -2.9770    3.3670   -3.5800 o         1 MOL     -0.775754
     48 O8         -3.3040    2.2300   -1.7460 o         1 MOL     -0.775754
     49 H21        -3.5490    3.0710    0.3840 hn        1 MOL      0.193974
     50 H22        -5.4510    5.2510   -0.3980 h1        1 MOL      0.096945
     51 H23        -3.9520    5.2780   -2.2880 hc        1 MOL      0.047613
     52 H24        -5.4100    4.3680   -2.6770 hc        1 MOL      0.047613
     53 N5         -6.2030    2.4140    0.7990 n         1 MOL     -0.202446
     54 C17        -7.2980    1.5870    1.1910 c3        1 MOL     -0.001544
     55 C18        -7.6960    0.5890    0.0670 c         1 MOL      0.379145
     56 O9         -8.9280    0.2950   -0.1070 o         1 MOL     -0.569025
     57 H25        -5.4120    2.4960    1.4190 hn        1 MOL      0.171315
     58 H26        -8.1220    2.1900    1.5530 h1        1 MOL      0.072620
     59 H27        -6.9660    1.0040    2.0450 h1        1 MOL      0.072620
     60 N6         -6.7570   -0.0440   -0.6540 n         1 MOL     -0.091328
     61 C19        -7.0420   -1.0160   -1.7320 c3        1 MOL      0.046923
     62 C20        -6.9540   -2.5420   -1.3410 c         1 MOL      0.375855
     63 O10        -7.3110   -3.4610   -2.0770 o         1 MOL     -0.524283
     64 C21        -6.0920   -0.7270   -2.8170 c3        1 MOL     -0.290966
     65 C22        -4.5690   -0.9390   -2.5860 c         1 MOL      0.863238
     66 O11        -3.6870   -0.5240   -3.3960 o         1 MOL     -0.767049
     67 O12        -4.2220   -1.4050   -1.5270 o         1 MOL     -0.767049
     68 H28        -5.7830    0.0470   -0.4310 hn        1 MOL      0.142191
     69 H29        -8.0660   -0.8670   -2.0840 h1        1 MOL      0.107827
     70 H30        -6.2860    0.3240   -3.0500 hc        1 MOL      0.066265
     71 H31        -6.2910   -1.3440   -3.6850 hc        1 MOL      0.066265
     72 N7         -6.4860   -2.7560   -0.1370 n         1 MOL     -0.180196
     73 C23        -6.4320   -4.1100    0.4460 c3        1 MOL     -0.253425
     74 C24        -5.0840   -4.8180    0.1220 c         1 MOL      0.560420
     75 O13        -4.9880   -6.0500    0.3010 o         1 MOL     -0.572193
     76 H32        -6.0350   -2.0010    0.3570 hn        1 MOL      0.210642
     77 H33        -7.2710   -4.6950    0.0430 h1        1 MOL      0.126619
     78 H34        -6.4430   -4.1540    1.5320 h1        1 MOL      0.126619
     79 N8         -4.1040   -4.0210   -0.2690 n         1 MOL     -0.367245
     80 C25        -2.6560   -4.4810   -0.4130 c3        1 MOL     -0.082326
     81 C26        -1.6740   -3.4960    0.1190 c         1 MOL      0.623592
     82 O14        -1.8830   -2.2940    0.0220 o         1 MOL     -0.615431
     83 C27        -2.2850   -4.8680   -1.8800 c3        1 MOL      0.548619
     84 C28        -2.7980   -6.1860   -2.3830 c3        1 MOL     -0.580850
     85 O15        -2.7190   -3.7720   -2.7580 oh        1 MOL     -0.606584
     86 H35        -4.3570   -3.0600   -0.4600 hn        1 MOL      0.355381
     87 H36        -2.5350   -5.4240    0.1060 h1        1 MOL      0.079330
     88 H37        -1.1980   -4.9470   -1.9330 h1        1 MOL     -0.051285
     89 H38        -3.1410   -3.1100   -2.2120 ho        1 MOL      0.323464
     90 H39        -3.0200   -6.7510   -1.4750 hc        1 MOL      0.152775
     91 H40        -3.7780   -6.0350   -2.8380 hc        1 MOL      0.152775
     92 H41        -2.1660   -6.6050   -3.1610 hc        1 MOL      0.152775
     93 N9         -0.5970   -4.0630    0.7160 n         1 MOL     -0.676653
     94 C29         0.5860   -3.2810    1.1640 c3        1 MOL     -0.021109
     95 C30         1.7980   -3.7010    0.2630 c         1 MOL      0.496230
     96 O16         2.2100   -4.8540    0.1140 o         1 MOL     -0.571498
     97 C31         0.8560   -3.5070    2.6670 c3        1 MOL      0.174687
     98 C32        -0.4720   -3.1080    3.4860 c3        1 MOL      0.216354
     99 C33         2.0840   -2.6430    3.0780 c3        1 MOL     -0.472551
    100 C34        -0.4550   -3.4670    4.9460 c3        1 MOL     -0.297271
    101 H42        -0.4080   -5.0530    0.6470 hn        1 MOL      0.340132
    102 H43         0.4740   -2.1990    1.0730 h1        1 MOL      0.112820
    103 H44         1.1290   -4.5370    2.8810 hc        1 MOL      0.002997
    104 H45        -1.3590   -3.5780    3.0710 hc        1 MOL      0.001225
    105 H46        -0.5070   -2.0170    3.5050 hc        1 MOL      0.001225
    106 H47         3.0270   -2.8340    2.5520 hc        1 MOL      0.088284
    107 H48         1.9570   -1.5720    2.8890 hc        1 MOL      0.088284
    108 H49         2.2120   -2.6800    4.1570 hc        1 MOL      0.088284
    109 H50         0.5040   -3.1920    5.3910 hc        1 MOL      0.060318
    110 H51        -1.3280   -2.9790    5.3960 hc        1 MOL      0.060318
    111 H52        -0.5610   -4.5420    5.0210 hc        1 MOL      0.060318
    112 N10         2.4400   -2.6790   -0.2730 n         1 MOL      0.000853
    113 C35         3.5830   -2.7650   -1.1590 c3        1 MOL     -0.146083
    114 C36         4.8970   -2.5230   -0.3430 c         1 MOL      0.512137
    115 O17         4.8920   -1.9650    0.7710 o         1 MOL     -0.449694
    116 C37         3.4890   -1.7100   -2.3300 c3        1 MOL      0.211093
    117 C38         2.2900   -1.9510   -3.2110 c3        1 MOL     -0.363801
    118 O18         3.2780   -0.4220   -1.7290 oh        1 MOL     -0.592112
    119 H53         1.9730   -1.7920   -0.1160 hn        1 MOL      0.175008
    120 H54         3.6040   -3.7190   -1.6720 h1        1 MOL      0.081415
    121 H55         4.4630   -1.6450   -2.8180 h1        1 MOL      0.029208
    122 H56         2.3370   -0.2610   -1.5660 ho        1 MOL      0.381080
    123 H57         1.4470   -2.3410   -2.6380 hc        1 MOL      0.101698
    124 H58         1.9280   -1.0130   -3.6410 hc        1 MOL      0.101698
    125 H59         2.5060   -2.5960   -4.0680 hc        1 MOL      0.101698
    126 N11         6.0380   -2.8280   -0.9010 n         1 MOL     -0.435050
    127 C39         7.3610   -2.5100   -0.2670 c3        1 MOL      0.012074
    128 C40         7.5400   -0.9920    0.0640 c         1 MOL      0.131831
    129 O19         8.1990   -0.6290    1.0210 o         1 MOL     -0.457768
    130 C41         8.5220   -2.7950   -1.2560 c3        1 MOL      0.285644
    131 C42         8.9740   -4.2630   -1.3010 c3        1 MOL     -0.478018
    132 O20         8.0540   -2.3560   -2.5140 oh        1 MOL     -0.670384
    133 H60         6.0730   -3.0380   -1.8920 hn        1 MOL      0.300436
    134 H61         7.3970   -3.1080    0.6490 h1        1 MOL      0.166728
    135 H62         9.3880   -2.1830   -1.0050 h1        1 MOL      0.054973
    136 H63         8.7810   -2.4490   -3.1400 ho        1 MOL      0.434013
    137 H64        10.0640   -4.3310   -1.4230 hc        1 MOL      0.137063
    138 H65         8.6250   -4.6790   -0.3630 hc        1 MOL      0.137063
    139 H66         8.6190   -4.8150   -2.1730 hc        1 MOL      0.137063
    140 N12         6.9390   -0.0700   -0.7230 n         1 MOL     -0.119370
    141 C43         6.9930    1.4310   -0.4560 c3        1 MOL     -0.079826
    142 C44         6.0020    1.7740    0.7060 c         1 MOL      0.401843
    143 O21         6.2960    2.5920    1.5530 o         1 MOL     -0.526511
    144 C45         6.8660    2.1970   -1.7640 c3        1 MOL     -0.316002
    145 C46         7.9340    2.0100   -2.9140 c3        1 MOL      0.140698
    146 C47         9.0940    3.0500   -2.8950 c3        1 MOL     -0.032398
    147 C48        10.1020    2.7070   -1.8930 c3        1 MOL      0.233010
    148 N13        11.1570    3.7420   -1.8270 n4        1 MOL     -0.592374
    149 H67         6.4140   -0.4600   -1.4870 hn        1 MOL      0.261565
    150 H68         7.9470    1.6600    0.0170 h1        1 MOL      0.098137
    151 H69         6.8400    3.2500   -1.4910 hc        1 MOL      0.115777
    152 H70         5.8970    1.8800   -2.1490 hc        1 MOL      0.115777
    153 H71         7.3600    2.3290   -3.7920 hc        1 MOL     -0.006522
    154 H72         8.2880    0.9990   -3.0970 hc        1 MOL     -0.006522
    155 H73         8.5970    4.0210   -2.8050 hc        1 MOL      0.016943
    156 H74         9.6810    2.9100   -3.8080 hc        1 MOL      0.016943
    157 H75        10.5470    1.7430   -2.1170 hx        1 MOL      0.051478
    158 H76         9.6080    2.5910   -0.9290 hx        1 MOL      0.051478
    159 H77        11.5860    3.8110   -2.7370 hn        1 MOL      0.374269
    160 H78        10.7350    4.6040   -1.5250 hn        1 MOL      0.374269
    161 H79        11.8370    3.5860   -1.0950 hn        1 MOL      0.374269
    162 N14         4.8680    1.1590    0.8410 n         1 MOL     -0.087750
    163 C49         3.8680    1.3680    1.9090 c3        1 MOL     -0.177383
    164 C50         4.3320    0.9090    3.2370 c         1 MOL      0.534882
    165 O22         4.0220    1.5470    4.2870 o         1 MOL     -0.544874
    166 C51         2.5960    0.5950    1.4570 c3        1 MOL      0.289040
    167 C52         1.8390    1.4520    0.3900 c3        1 MOL     -0.349586
    168 C53         0.6230    0.7330    0.0050 c         1 MOL      0.726091
    169 O23         0.6370   -0.2940   -0.6010 o         1 MOL     -0.680659
    170 O24        -0.4990    1.2500    0.1990 o         1 MOL     -0.680659
    171 H80         4.6160    0.4420    0.1710 hn        1 MOL      0.118354
    172 H81         3.6290    2.4270    1.9260 h1        1 MOL      0.118297
    173 H82         1.9960    0.4070    2.3430 hc        1 MOL     -0.007479
    174 H83         2.8180   -0.4180    1.0990 hc        1 MOL     -0.007479
    175 H84         2.4770    1.6820   -0.4590 hc        1 MOL      0.061147
    176 H85         1.5950    2.3880    0.9120 hc        1 MOL      0.061147
    177 N15         5.1960   -0.0960    3.2250 n         1 MOL     -0.226783
    178 C54         6.0180   -0.4920    4.3790 c3        1 MOL     -0.421270
    179 H86         6.8500    0.2040    4.4870 h1        1 MOL      0.148669
    180 H87         5.4090   -0.4740    5.2820 h1        1 MOL      0.148669
    181 H88         6.4040   -1.4990    4.2210 h1        1 MOL      0.148669
    182 H89         5.4910   -0.4690    2.3370 hn        1 MOL      0.316650
    183 Ca1        -2.0720    0.0250   -1.3100 Ca        1 MOL      1.683951
    184 O25        -0.9390    1.4530   -3.2120 oh        1 MOL     -0.773919
    185 H90        -1.5330    2.1860   -3.3720 ho        1 MOL      0.374601
    186 H91        -0.0660    1.8070   -3.3590 ho        1 MOL      0.374601
    187 O26        -0.9890   -1.6180   -3.0210 oh        1 MOL     -0.773919
    188 H92        -0.6130   -1.3000   -3.8450 ho        1 MOL      0.374601
    189 H93        -1.4250   -2.4400   -3.2520 ho        1 MOL      0.374601
@<TRIPOS>BOND
     1    1    2 1   
     2    1    4 1   
     3    1    5 1   
     4    1    6 1   
     5    2    3 2   
     6    2    7 1   
     7    7    8 1   
     8    7   15 1   
     9    8    9 1   
    10    8   11 1   
    11    8   16 1   
    12    9   10 2   
    13    9   19 1   
    14   11   12 1   
    15   11   17 1   
    16   11   18 1   
    17   12   13 1   
    18   12   14 1   
    19   19   20 1   
    20   19   28 1   
    21   20   21 1   
    22   20   23 1   
    23   20   29 1   
    24   21   22 2   
    25   21   41 1   
    26   23   24 1   
    27   23   30 1   
    28   23   31 1   
    29   24   25 1   
    30   24   32 1   
    31   24   33 1   
    32   25   26 1   
    33   25   34 1   
    34   25   35 1   
    35   26   27 1   
    36   26   36 1   
    37   26   37 1   
    38   27   38 1   
    39   27   39 1   
    40   27   40 1   
    41   41   42 1   
    42   41   49 1   
    43   42   43 1   
    44   42   45 1   
    45   42   50 1   
    46   43   44 2   
    47   43   53 1   
    48   45   46 1   
    49   45   51 1   
    50   45   52 1   
    51   46   47 1   
    52   46   48 1   
    53   53   54 1   
    54   53   57 1   
    55   54   55 1   
    56   54   58 1   
    57   54   59 1   
    58   55   56 2   
    59   55   60 1   
    60   60   61 1   
    61   60   68 1   
    62   61   62 1   
    63   61   64 1   
    64   61   69 1   
    65   62   63 2   
    66   62   72 1   
    67   64   65 1   
    68   64   70 1   
    69   64   71 1   
    70   65   66 1   
    71   65   67 1   
    72   72   73 1   
    73   72   76 1   
    74   73   74 1   
    75   73   77 1   
    76   73   78 1   
    77   74   75 2   
    78   74   79 1   
    79   79   80 1   
    80   79   86 1   
    81   80   81 1   
    82   80   83 1   
    83   80   87 1   
    84   81   82 2   
    85   81   93 1   
    86   83   84 1   
    87   83   85 1   
    88   83   88 1   
    89   84   90 1   
    90   84   91 1   
    91   84   92 1   
    92   85   89 1   
    93   93   94 1   
    94   93  101 1   
    95   94   95 1   
    96   94   97 1   
    97   94  102 1   
    98   95   96 2   
    99   95  112 1   
   100   97   98 1   
   101   97   99 1   
   102   97  103 1   
   103   98  100 1   
   104   98  104 1   
   105   98  105 1   
   106   99  106 1   
   107   99  107 1   
   108   99  108 1   
   109  100  109 1   
   110  100  110 1   
   111  100  111 1   
   112  112  113 1   
   113  112  119 1   
   114  113  114 1   
   115  113  116 1   
   116  113  120 1   
   117  114  115 2   
   118  114  126 1   
   119  116  117 1   
   120  116  118 1   
   121  116  121 1   
   122  117  123 1   
   123  117  124 1   
   124  117  125 1   
   125  118  122 1   
   126  126  127 1   
   127  126  133 1   
   128  127  128 1   
   129  127  130 1   
   130  127  134 1   
   131  128  129 2   
   132  128  140 1   
   133  130  131 1   
   134  130  132 1   
   135  130  135 1   
   136  131  137 1   
   137  131  138 1   
   138  131  139 1   
   139  132  136 1   
   140  140  141 1   
   141  140  149 1   
   142  141  142 1   
   143  141  144 1   
   144  141  150 1   
   145  142  143 2   
   146  142  162 1   
   147  144  145 1   
   148  144  151 1   
   149  144  152 1   
   150  145  146 1   
   151  145  153 1   
   152  145  154 1   
   153  146  147 1   
   154  146  155 1   
   155  146  156 1   
   156  147  148 1   
   157  147  157 1   
   158  147  158 1   
   159  148  159 1   
   160  148  160 1   
   161  148  161 1   
   162  162  163 1   
   163  162  171 1   
   164  163  164 1   
   165  163  166 1   
   166  163  172 1   
   167  164  165 2   
   168  164  177 1   
   169  166  167 1   
   170  166  173 1   
   171  166  174 1   
   172  167  168 1   
   173  167  175 1   
   174  167  176 1   
   175  168  169 1   
   176  168  170 1   
   177  177  178 1   
   178  177  182 1   
   179  178  179 1   
   180  178  180 1   
   181  178  181 1   
   182  184  185 1   
   183  184  186 1   
   184  187  188 1   
   185  187  189 1   
@<TRIPOS>SUBSTRUCTURE
     1 MOL         1 TEMP              0 ****  ****    0 ROOT
