@<TRIPOS>MOLECULE
MOL
  189   185     1     0     0
SMALL
resp


@<TRIPOS>ATOM
      1 C1         -0.5770    2.5360   -4.9090 c3        1 MOL     -0.569766
      2 C2          0.1450    2.3760   -3.5630 c         1 MOL      0.723180
      3 O1         -0.4000    2.7720   -2.4620 o         1 MOL     -0.584879
      4 H1         -1.2880    1.7210   -5.0380 hc        1 MOL      0.142661
      5 H2         -1.1090    3.4880   -4.9260 hc        1 MOL      0.142661
      6 H3          0.1530    2.5130   -5.7180 hc        1 MOL      0.142661
      7 N1          1.3980    1.8630   -3.6540 n         1 MOL     -0.709093
      8 C3          2.2820    1.5240   -2.4980 c3        1 MOL      0.379129
      9 C4          2.8440    2.8510   -1.9010 c         1 MOL      0.405222
     10 O2          4.0500    3.0810   -2.0570 o         1 MOL     -0.485162
     11 C5          3.3240    0.5290   -2.9400 c3        1 MOL     -0.103442
     12 C6          4.0480   -0.0430   -1.6820 c         1 MOL      0.579228
     13 O3          3.6710    0.0640   -0.4800 o         1 MOL     -0.625028
     14 O4          5.1730   -0.5860   -1.8340 o         1 MOL     -0.625028
     15 H4          1.6360    1.6400   -4.6150 hn        1 MOL      0.339401
     16 H5          1.7560    1.0460   -1.6730 h1        1 MOL     -0.061285
     17 H6          4.0620    1.0040   -3.5980 hc        1 MOL      0.041081
     18 H7          2.9120   -0.3110   -3.4950 hc        1 MOL      0.041081
     19 N2          2.0030    3.7260   -1.3700 n         1 MOL     -0.316052
     20 C7          2.2980    5.1160   -0.9290 c3        1 MOL     -0.161345
     21 C8          3.3480    5.1530    0.2230 c         1 MOL      0.457937
     22 O5          3.8990    6.2420    0.4630 o         1 MOL     -0.569269
     23 C9          0.9990    5.8770   -0.5650 c3        1 MOL     -0.050794
     24 C10         0.2970    6.3540   -1.8600 c3        1 MOL      0.220295
     25 C11        -1.1190    6.8990   -1.6370 c3        1 MOL     -0.082566
     26 C12        -1.8890    7.6550   -2.8530 c3        1 MOL     -0.247286
     27 N3         -2.1990    6.6430   -3.9310 n4        1 MOL     -0.235954
     28 H8          1.0490    3.4270   -1.3120 hn        1 MOL      0.356886
     29 H9          2.6960    5.5970   -1.8290 h1        1 MOL      0.123758
     30 H10         1.1600    6.7410    0.0830 hc        1 MOL      0.051491
     31 H11         0.3170    5.2170   -0.0330 hc        1 MOL      0.051491
     32 H12         0.2400    5.4790   -2.5060 hc        1 MOL     -0.059024
     33 H13         0.9730    7.1200   -2.2640 hc        1 MOL     -0.059024
     34 H14        -1.0470    7.4540   -0.7020 hc        1 MOL      0.057652
     35 H15        -1.6810    6.0270   -1.3000 hc        1 MOL      0.057652
     36 H16        -1.2330    8.4630   -3.1780 hx        1 MOL      0.168830
     37 H17        -2.8160    8.0990   -2.4910 hx        1 MOL      0.168830
     38 H18        -2.3150    5.7120   -3.5550 hn        1 MOL      0.309845
     39 H19        -3.0540    6.8460   -4.4330 hn        1 MOL      0.309845
     40 H20        -1.4750    6.5880   -4.6330 hn        1 MOL      0.309845
     41 N4          3.4490    4.1670    1.0810 n         1 MOL     -0.211154
     42 C13         4.4540    4.1260    2.1460 c3        1 MOL      0.185568
     43 C14         5.6350    3.2290    1.7490 c         1 MOL      0.428428
     44 O6          6.7680    3.5290    2.2210 o         1 MOL     -0.557075
     45 C15         3.7480    3.6380    3.3940 c3        1 MOL     -0.482590
     46 C16         2.8150    2.4410    3.1940 c         1 MOL      0.845513
     47 O7          1.9000    2.2690    4.0450 o         1 MOL     -0.722226
     48 O8          2.9020    1.7460    2.1840 o         1 MOL     -0.722226
     49 H21         2.8850    3.3240    0.9830 hn        1 MOL      0.210841
     50 H22         4.9250    5.0980    2.3220 h1        1 MOL      0.071340
     51 H23         3.1070    4.4790    3.6780 hc        1 MOL      0.115802
     52 H24         4.5040    3.3880    4.1410 hc        1 MOL      0.115802
     53 N5          5.4900    2.3870    0.7250 n         1 MOL     -0.053845
     54 C17         6.5830    1.7110    0.0380 c3        1 MOL     -0.103339
     55 C18         7.1890    0.5630    0.8310 c         1 MOL      0.627979
     56 O9          8.3240    0.6700    1.3180 o         1 MOL     -0.573451
     57 H25         4.5570    2.3360    0.3360 hn        1 MOL     -0.022924
     58 H26         7.4460    2.3430   -0.1520 h1        1 MOL      0.075463
     59 H27         6.3290    1.3670   -0.9620 h1        1 MOL      0.075463
     60 N6          6.4850   -0.5830    0.8600 n         1 MOL     -0.395001
     61 C19         6.8880   -1.8300    1.5270 c3        1 MOL      0.145498
     62 C20         7.0370   -3.0220    0.5750 c         1 MOL      0.369743
     63 O10         7.4910   -4.0700    1.1140 o         1 MOL     -0.532962
     64 C21         6.0240   -2.0370    2.7800 c3        1 MOL     -0.300712
     65 C22         4.5040   -1.8910    2.5800 c         1 MOL      0.757708
     66 O11         3.7610   -1.3640    3.4580 o         1 MOL     -0.693467
     67 O12         3.9320   -2.2830    1.4710 o         1 MOL     -0.693467
     68 H28         5.6510   -0.5950    0.2990 hn        1 MOL      0.079138
     69 H29         7.9060   -1.7110    1.8990 h1        1 MOL      0.090900
     70 H30         6.3560   -1.2600    3.4590 hc        1 MOL      0.096293
     71 H31         6.1390   -3.0230    3.2400 hc        1 MOL      0.096293
     72 N7          6.5930   -2.9870   -0.6960 n         1 MOL     -0.265140
     73 C23         6.4590   -4.2010   -1.5430 c3        1 MOL     -0.126926
     74 C24         5.0130   -4.7740   -1.6500 c         1 MOL      0.551459
     75 O13         4.8410   -5.7880   -2.3660 o         1 MOL     -0.593659
     76 H32         6.1180   -2.1230   -0.9280 hn        1 MOL      0.237420
     77 H33         7.0090   -5.0400   -1.1350 h1        1 MOL      0.099255
     78 H34         6.7080   -4.0100   -2.5850 h1        1 MOL      0.099255
     79 N8          4.0400   -4.1400   -1.0380 n         1 MOL     -0.307798
     80 C25         2.6210   -4.5420   -0.9430 c3        1 MOL     -0.230405
     81 C26         1.5740   -3.3880   -1.0660 c         1 MOL      0.732113
     82 O14         1.7510   -2.3150   -0.5650 o         1 MOL     -0.621828
     83 C27         2.4250   -5.2200    0.3600 c3        1 MOL      0.444400
     84 C28         3.0020   -6.6370    0.4260 c3        1 MOL     -0.451384
     85 O15         2.9840   -4.5370    1.5000 oh        1 MOL     -0.662496
     86 H35         4.3350   -3.4380   -0.3770 hn        1 MOL      0.291742
     87 H36         2.4680   -5.2860   -1.7290 h1        1 MOL      0.124888
     88 H37         1.3590   -5.3620    0.5190 h1        1 MOL     -0.019519
     89 H38         3.3000   -3.6370    1.3630 ho        1 MOL      0.434190
     90 H39         4.0920   -6.5860    0.3990 hc        1 MOL      0.120292
     91 H40         2.6750   -7.1000    1.3560 hc        1 MOL      0.120292
     92 H41         2.7230   -7.1790   -0.4790 hc        1 MOL      0.120292
     93 N9          0.4910   -3.6920   -1.7730 n         1 MOL     -0.718146
     94 C29        -0.7270   -2.8160   -1.8310 c3        1 MOL      0.294704
     95 C30        -1.7960   -3.5000   -0.9610 c         1 MOL      0.353507
     96 O16        -2.1210   -4.7260   -1.1390 o         1 MOL     -0.536833
     97 C31        -1.1650   -2.6990   -3.2560 c3        1 MOL      0.123457
     98 C32        -0.1490   -2.1270   -4.2720 c3        1 MOL     -0.013708
     99 C33        -2.5010   -1.7880   -3.3680 c3        1 MOL     -0.196066
    100 C34        -0.4990   -2.4700   -5.7330 c3        1 MOL     -0.106527
    101 H42         0.4830   -4.4350   -2.4600 hn        1 MOL      0.332845
    102 H43        -0.4140   -1.8250   -1.5250 h1        1 MOL      0.063215
    103 H44        -1.4060   -3.7120   -3.5860 hc        1 MOL     -0.021966
    104 H45         0.8580   -2.4710   -4.0550 hc        1 MOL      0.022822
    105 H46        -0.1540   -1.0360   -4.1560 hc        1 MOL      0.022822
    106 H47        -2.2200   -0.7460   -3.2030 hc        1 MOL      0.027409
    107 H48        -2.9770   -1.9580   -4.3340 hc        1 MOL      0.027409
    108 H49        -3.2550   -2.1070   -2.6580 hc        1 MOL      0.027409
    109 H50        -1.4400   -2.0450   -6.0760 hc        1 MOL      0.027601
    110 H51         0.2730   -2.1230   -6.4190 hc        1 MOL      0.027601
    111 H52        -0.4280   -3.5480   -5.9260 hc        1 MOL      0.027601
    112 N10        -2.4110   -2.7100   -0.0420 n         1 MOL     -0.040843
    113 C35        -3.5330   -3.1610    0.7590 c3        1 MOL      0.035694
    114 C36        -4.7760   -2.7580    0.0220 c         1 MOL      0.153546
    115 O17        -4.8160   -1.8800   -0.8130 o         1 MOL     -0.142538
    116 C37        -3.6080   -2.4130    2.0670 c3        1 MOL     -0.053031
    117 C38        -2.3890   -2.5560    2.9300 c3        1 MOL     -0.275746
    118 O18        -3.8420   -1.0130    1.9090 oh        1 MOL     -0.288117
    119 H53        -2.0170   -1.8200    0.2270 hn        1 MOL      0.030653
    120 H54        -3.5500   -4.2360    0.9400 h1        1 MOL      0.090536
    121 H55        -4.4150   -2.8330    2.6740 h1        1 MOL      0.056414
    122 H56        -3.5830   -0.6480    2.7550 ho        1 MOL      0.340880
    123 H57        -1.5040   -2.1840    2.4200 hc        1 MOL      0.099606
    124 H58        -2.4640   -2.0740    3.9020 hc        1 MOL      0.099606
    125 H59        -2.1970   -3.6210    3.1040 hc        1 MOL      0.099606
    126 N11        -5.8640   -3.3970    0.4010 n         1 MOL     -0.201380
    127 C39        -7.1330   -2.8830    0.0480 c3        1 MOL     -0.223019
    128 C40        -7.4530   -1.3560    0.2010 c         1 MOL      0.350514
    129 O19        -8.1800   -0.8010   -0.6200 o         1 MOL     -0.450955
    130 C41        -8.3580   -3.5680    0.7870 c3        1 MOL      0.296486
    131 C42        -8.6180   -4.9290    0.2790 c3        1 MOL     -0.235430
    132 O20        -8.1900   -3.7430    2.0940 oh        1 MOL     -0.617381
    133 H60        -5.7520   -4.1820    1.0290 hn        1 MOL      0.296872
    134 H61        -7.2190   -3.2070   -0.9950 h1        1 MOL      0.140005
    135 H62        -9.2630   -3.0110    0.5460 h1        1 MOL      0.049936
    136 H63        -8.9890   -4.1920    2.3880 ho        1 MOL      0.405815
    137 H64        -8.9010   -4.8400   -0.7710 hc        1 MOL      0.060955
    138 H65        -7.7360   -5.5430    0.4680 hc        1 MOL      0.060955
    139 H66        -9.5110   -5.4200    0.6720 hc        1 MOL      0.060955
    140 N12        -6.9290   -0.7960    1.2810 n         1 MOL     -0.209905
    141 C43        -7.0110    0.7180    1.5270 c3        1 MOL     -0.073342
    142 C44        -6.2170    1.3510    0.3340 c         1 MOL      0.234223
    143 O21        -6.7480    2.1390   -0.4130 o         1 MOL     -0.430871
    144 C45        -6.4680    1.1750    2.8210 c3        1 MOL      0.009749
    145 C46        -6.4890    2.7370    2.9380 c3        1 MOL      0.009239
    146 C47        -6.3070    3.2530    4.3660 c3        1 MOL     -0.055610
    147 C48        -4.9250    2.8430    5.0030 c3        1 MOL      0.110627
    148 N13        -4.8850    3.2660    6.3990 n4        1 MOL     -0.327613
    149 H67        -6.5710   -1.3710    2.0340 hn        1 MOL      0.216106
    150 H68        -8.0260    1.0600    1.3550 h1        1 MOL      0.140185
    151 H69        -5.4530    0.8720    3.0480 hc        1 MOL     -0.003218
    152 H70        -7.1070    0.8360    3.6390 hc        1 MOL     -0.003218
    153 H71        -7.4050    3.1430    2.5140 hc        1 MOL      0.045699
    154 H72        -5.7080    3.2360    2.3570 hc        1 MOL      0.045699
    155 H73        -7.0980    2.9240    5.0330 hc        1 MOL      0.030195
    156 H74        -6.2310    4.3340    4.4570 hc        1 MOL      0.030195
    157 H75        -4.1550    3.4200    4.4980 hx        1 MOL      0.057648
    158 H76        -4.7150    1.7960    4.7640 hx        1 MOL      0.057648
    159 H77        -4.0570    2.9890    6.9170 hn        1 MOL      0.313082
    160 H78        -4.8760    4.2650    6.5010 hn        1 MOL      0.313082
    161 H79        -5.6440    2.9880    7.0070 hn        1 MOL      0.313082
    162 N14        -4.8730    1.0930    0.1010 n         1 MOL     -0.039095
    163 C49        -4.0840    1.6810   -0.9990 c3        1 MOL     -0.126302
    164 C50        -4.8190    1.5350   -2.3370 c         1 MOL      0.423866
    165 O22        -5.0240    2.5090   -3.0040 o         1 MOL     -0.569584
    166 C51        -2.6920    1.0590   -0.9890 c3        1 MOL      0.001415
    167 C52        -1.9030    1.6580    0.2240 c3        1 MOL     -0.187185
    168 C53        -0.5860    0.9110    0.3750 c         1 MOL      0.815801
    169 O23        -0.5460   -0.3370    0.3340 o         1 MOL     -0.736952
    170 O24         0.3980    1.6220    0.3880 o         1 MOL     -0.736952
    171 H80        -4.4800    0.3610    0.6740 hn        1 MOL      0.043134
    172 H81        -3.9760    2.7540   -0.8520 h1        1 MOL      0.065728
    173 H82        -2.2510    1.1990   -1.9710 hc        1 MOL      0.051149
    174 H83        -2.9330   -0.0040   -0.9040 hc        1 MOL      0.051149
    175 H84        -2.4510    1.5410    1.1680 hc        1 MOL      0.008607
    176 H85        -1.6860    2.7200    0.1350 hc        1 MOL      0.008607
    177 N15        -5.2340    0.3060   -2.6810 n         1 MOL      0.099922
    178 C54        -5.9260   -0.0420   -3.8540 c3        1 MOL     -0.224002
    179 H86        -6.4410   -0.9920   -3.7030 h1        1 MOL      0.075454
    180 H87        -6.6560    0.7320   -4.0900 h1        1 MOL      0.075454
    181 H88        -5.2200   -0.1400   -4.6780 h1        1 MOL      0.075454
    182 H89        -4.9830   -0.4650   -2.0670 hn        1 MOL     -0.009857
    183 Ca1         1.9790   -0.4450    1.3370 Ca        1 MOL      1.753084
    184 O25         0.3300    0.2980    3.3810 oh        1 MOL     -0.887755
    185 H90        -0.3860    0.0550    3.9680 ho        1 MOL      0.398186
    186 H91         0.8490    0.9270    3.8860 ho        1 MOL      0.398186
    187 O26         1.1620   -2.8370    2.4970 oh        1 MOL     -0.887755
    188 H92         0.8330   -3.3330    3.2470 ho        1 MOL      0.398186
    189 H93         1.8140   -3.4130    2.0980 ho        1 MOL      0.398186
@<TRIPOS>BOND
     1    1    2 1   
     2    1    4 1   
     3    1    5 1   
     4    1    6 1   
     5    2    3 2   
     6    2    7 1   
     7    7    8 1   
     8    7   15 1   
     9    8    9 1   
    10    8   11 1   
    11    8   16 1   
    12    9   10 2   
    13    9   19 1   
    14   11   12 1   
    15   11   17 1   
    16   11   18 1   
    17   12   13 1   
    18   12   14 1   
    19   19   20 1   
    20   19   28 1   
    21   20   21 1   
    22   20   23 1   
    23   20   29 1   
    24   21   22 2   
    25   21   41 1   
    26   23   24 1   
    27   23   30 1   
    28   23   31 1   
    29   24   25 1   
    30   24   32 1   
    31   24   33 1   
    32   25   26 1   
    33   25   34 1   
    34   25   35 1   
    35   26   27 1   
    36   26   36 1   
    37   26   37 1   
    38   27   38 1   
    39   27   39 1   
    40   27   40 1   
    41   41   42 1   
    42   41   49 1   
    43   42   43 1   
    44   42   45 1   
    45   42   50 1   
    46   43   44 2   
    47   43   53 1   
    48   45   46 1   
    49   45   51 1   
    50   45   52 1   
    51   46   47 1   
    52   46   48 1   
    53   53   54 1   
    54   53   57 1   
    55   54   55 1   
    56   54   58 1   
    57   54   59 1   
    58   55   56 2   
    59   55   60 1   
    60   60   61 1   
    61   60   68 1   
    62   61   62 1   
    63   61   64 1   
    64   61   69 1   
    65   62   63 2   
    66   62   72 1   
    67   64   65 1   
    68   64   70 1   
    69   64   71 1   
    70   65   66 1   
    71   65   67 1   
    72   72   73 1   
    73   72   76 1   
    74   73   74 1   
    75   73   77 1   
    76   73   78 1   
    77   74   75 2   
    78   74   79 1   
    79   79   80 1   
    80   79   86 1   
    81   80   81 1   
    82   80   83 1   
    83   80   87 1   
    84   81   82 2   
    85   81   93 1   
    86   83   84 1   
    87   83   85 1   
    88   83   88 1   
    89   84   90 1   
    90   84   91 1   
    91   84   92 1   
    92   85   89 1   
    93   93   94 1   
    94   93  101 1   
    95   94   95 1   
    96   94   97 1   
    97   94  102 1   
    98   95   96 2   
    99   95  112 1   
   100   97   98 1   
   101   97   99 1   
   102   97  103 1   
   103   98  100 1   
   104   98  104 1   
   105   98  105 1   
   106   99  106 1   
   107   99  107 1   
   108   99  108 1   
   109  100  109 1   
   110  100  110 1   
   111  100  111 1   
   112  112  113 1   
   113  112  119 1   
   114  113  114 1   
   115  113  116 1   
   116  113  120 1   
   117  114  115 2   
   118  114  126 1   
   119  116  117 1   
   120  116  118 1   
   121  116  121 1   
   122  117  123 1   
   123  117  124 1   
   124  117  125 1   
   125  118  122 1   
   126  126  127 1   
   127  126  133 1   
   128  127  128 1   
   129  127  130 1   
   130  127  134 1   
   131  128  129 2   
   132  128  140 1   
   133  130  131 1   
   134  130  132 1   
   135  130  135 1   
   136  131  137 1   
   137  131  138 1   
   138  131  139 1   
   139  132  136 1   
   140  140  141 1   
   141  140  149 1   
   142  141  142 1   
   143  141  144 1   
   144  141  150 1   
   145  142  143 2   
   146  142  162 1   
   147  144  145 1   
   148  144  151 1   
   149  144  152 1   
   150  145  146 1   
   151  145  153 1   
   152  145  154 1   
   153  146  147 1   
   154  146  155 1   
   155  146  156 1   
   156  147  148 1   
   157  147  157 1   
   158  147  158 1   
   159  148  159 1   
   160  148  160 1   
   161  148  161 1   
   162  162  163 1   
   163  162  171 1   
   164  163  164 1   
   165  163  166 1   
   166  163  172 1   
   167  164  165 2   
   168  164  177 1   
   169  166  167 1   
   170  166  173 1   
   171  166  174 1   
   172  167  168 1   
   173  167  175 1   
   174  167  176 1   
   175  168  169 1   
   176  168  170 1   
   177  177  178 1   
   178  177  182 1   
   179  178  179 1   
   180  178  180 1   
   181  178  181 1   
   182  184  185 1   
   183  184  186 1   
   184  187  188 1   
   185  187  189 1   
@<TRIPOS>SUBSTRUCTURE
     1 MOL         1 TEMP              0 ****  ****    0 ROOT
