@<TRIPOS>MOLECULE
MOL
  176   174     1     0     0
SMALL
resp


@<TRIPOS>ATOM
      1 C1          0.7380    3.9150    6.2940 c3        1 MOL     -0.297707
      2 C2          0.5560    3.3120    4.8850 c         1 MOL      0.746933
      3 O1          1.5330    2.9860    4.2270 o         1 MOL     -0.588027
      4 H1          1.6640    4.4880    6.3270 hc        1 MOL      0.074891
      5 H2         -0.1030    4.5710    6.5210 hc        1 MOL      0.074891
      6 H3          0.7830    3.1130    7.0310 hc        1 MOL      0.074891
      7 N1         -0.6970    3.1760    4.4180 n         1 MOL     -0.644725
      8 C3         -1.0930    2.6630    3.0810 c3        1 MOL      0.063258
      9 C4         -1.1880    3.9050    2.1970 c         1 MOL      0.771995
     10 O2         -1.7210    4.9540    2.5980 o         1 MOL     -0.615141
     11 C5         -2.3060    1.7020    3.2480 c3        1 MOL     -0.066959
     12 C6         -2.9500    1.2570    1.9110 c         1 MOL      0.643539
     13 O3         -4.0280    0.6160    1.9200 o         1 MOL     -0.658786
     14 O4         -2.3800    1.6180    0.8330 o         1 MOL     -0.658786
     15 H4         -1.4850    3.1080    5.0570 hn        1 MOL      0.311848
     16 H5         -0.2240    2.0720    2.8060 h1        1 MOL      0.030583
     17 H6         -3.1750    2.1410    3.7330 hc        1 MOL      0.021737
     18 H7         -1.9020    0.8530    3.8000 hc        1 MOL      0.021737
     19 N2         -0.5570    3.8680    1.0290 n         1 MOL     -0.397950
     20 C7         -0.2980    5.0360    0.1260 c3        1 MOL     -0.349108
     21 C8         -1.3730    5.2570   -0.9600 c         1 MOL      0.650508
     22 O5         -1.4900    6.3220   -1.5260 o         1 MOL     -0.605366
     23 C9          1.1080    4.7970   -0.5420 c3        1 MOL      0.256066
     24 C10         1.7100    5.9150   -1.4190 c3        1 MOL     -0.225685
     25 C11         3.0380    5.4640   -1.9850 c3        1 MOL     -0.034076
     26 C12         3.4750    6.6510   -2.9710 c3        1 MOL      0.060367
     27 N3          4.8920    6.4800   -3.4760 n4        1 MOL     -0.400082
     28 H8         -0.2620    2.9440    0.7420 hn        1 MOL      0.217125
     29 H9         -0.3120    5.9110    0.7710 h1        1 MOL      0.176295
     30 H10         0.9880    3.8800   -1.1160 hc        1 MOL      0.017852
     31 H11         1.7730    4.6550    0.3130 hc        1 MOL      0.017852
     32 H12         1.8070    6.7300   -0.7020 hc        1 MOL      0.071844
     33 H13         1.0360    6.1260   -2.2380 hc        1 MOL      0.071844
     34 H14         2.9000    4.5250   -2.5230 hc        1 MOL      0.058765
     35 H15         3.7490    5.3590   -1.1620 hc        1 MOL      0.058765
     36 H16         3.4070    7.6300   -2.5000 hx        1 MOL      0.085753
     37 H17         2.7000    6.6910   -3.7490 hx        1 MOL      0.085753
     38 H18         4.9550    5.5880   -3.9660 hn        1 MOL      0.335240
     39 H19         5.1490    7.2210   -4.1120 hn        1 MOL      0.335240
     40 H20         5.5760    6.4230   -2.7370 hn        1 MOL      0.335240
     41 N4         -2.2240    4.3120   -1.2080 n         1 MOL     -0.319208
     42 C13        -3.3700    4.3410   -2.1050 c3        1 MOL      0.047985
     43 C14        -4.6260    4.0600   -1.3740 c         1 MOL      0.356177
     44 O6         -5.7780    4.1260   -1.9080 o         1 MOL     -0.516146
     45 C15        -3.1660    3.3940   -3.2920 c3        1 MOL     -0.291977
     46 C16        -2.8340    1.9550   -2.8320 c         1 MOL      0.836057
     47 O7         -3.4810    1.4390   -1.8830 o         1 MOL     -0.786856
     48 O8         -1.8710    1.3230   -3.3450 o         1 MOL     -0.786856
     49 H21        -2.2330    3.5180   -0.5840 hn        1 MOL      0.172711
     50 H22        -3.4250    5.3290   -2.5720 h1        1 MOL      0.117568
     51 H23        -2.3260    3.8120   -3.8490 hc        1 MOL      0.085900
     52 H24        -4.0740    3.3650   -3.8890 hc        1 MOL      0.085900
     53 N5         -4.4990    3.5520   -0.1420 n         1 MOL     -0.068858
     54 C17        -5.5980    3.1810    0.7670 c3        1 MOL     -0.425257
     55 C18        -6.5560    2.0700    0.2970 c         1 MOL      0.672195
     56 O9         -7.7620    2.1500    0.4590 o         1 MOL     -0.567949
     57 H25        -3.5890    3.3580    0.2440 hn        1 MOL      0.119490
     58 H26        -6.1650    4.1120    0.7070 h1        1 MOL      0.167871
     59 H27        -5.0820    2.9630    1.7000 h1        1 MOL      0.167871
     60 N6         -5.9730    0.9570   -0.2920 n         1 MOL     -0.288282
     61 C19        -6.6920   -0.1950   -0.7900 c3        1 MOL      0.109720
     62 C20        -6.6550   -1.4530    0.0890 c         1 MOL      0.397418
     63 O10        -7.3860   -2.4240   -0.1400 o         1 MOL     -0.520386
     64 C21        -6.1440   -0.5890   -2.1930 c3        1 MOL     -0.410583
     65 C22        -4.7140   -1.1560   -2.2490 c         1 MOL      0.720828
     66 N7         -4.2060   -1.1530   -3.4360 n         1 MOL     -0.638078
     67 O11        -4.0400   -1.4630   -1.2940 o         1 MOL     -0.549262
     68 H28        -4.9750    0.9440   -0.4730 hn        1 MOL      0.182959
     69 H29        -7.7490    0.0120   -0.9590 h1        1 MOL      0.101518
     70 H30        -6.0580    0.3220   -2.7830 hc        1 MOL      0.122290
     71 H31        -6.9580   -1.1990   -2.5830 hc        1 MOL      0.122290
     72 H32        -4.8480   -0.8640   -4.1580 hn        1 MOL      0.303580
     73 H33        -3.3700   -1.6260   -3.7410 hn        1 MOL      0.303580
     74 N8         -5.9560   -1.3790    1.2110 n         1 MOL     -0.308105
     75 C23        -6.0940   -2.2600    2.3580 c3        1 MOL     -0.053069
     76 C24        -5.0280   -3.3910    2.4870 c         1 MOL      0.379104
     77 O12        -5.1400   -4.3200    3.2910 o         1 MOL     -0.564867
     78 H34        -5.2560   -0.6630    1.3480 hn        1 MOL      0.237577
     79 H35        -7.0840   -2.7160    2.4060 h1        1 MOL      0.090189
     80 H36        -6.0510   -1.6860    3.2850 h1        1 MOL      0.090189
     81 N9         -4.1360   -3.3830    1.6020 n         1 MOL     -0.007044
     82 C25        -2.8780   -4.0580    1.8350 c3        1 MOL      0.045489
     83 C26        -1.6910   -3.1820    1.3110 c         1 MOL      0.786991
     84 O13        -1.8780   -2.2110    0.6130 o         1 MOL     -0.672350
     85 C27        -2.8160   -5.4060    1.1970 c3        1 MOL     -0.280264
     86 C28        -2.8450   -5.3840   -0.3430 ca        1 MOL      0.111257
     87 C29        -1.6670   -5.3140   -1.1280 ca        1 MOL     -0.197904
     88 C30        -4.0540   -5.5190   -0.9990 ca        1 MOL     -0.197904
     89 C31        -1.7820   -5.5240   -2.4970 ca        1 MOL     -0.181459
     90 C32        -4.1850   -5.4760   -2.3590 ca        1 MOL     -0.181459
     91 C33        -3.0250   -5.5300   -3.1230 ca        1 MOL      0.247406
     92 O14        -3.0640   -5.4400   -4.4700 oh        1 MOL     -0.448364
     93 H37        -3.9800   -2.5910    0.9950 hn        1 MOL      0.098740
     94 H38        -2.6970   -4.1150    2.9100 h1        1 MOL      0.036468
     95 H39        -3.6240   -6.0660    1.5060 hc        1 MOL      0.108680
     96 H40        -1.9040   -5.9730    1.3970 hc        1 MOL      0.108680
     97 H41        -0.7030   -5.2390   -0.6630 ha        1 MOL      0.154612
     98 H42        -4.9410   -5.4740   -0.3820 ha        1 MOL      0.154612
     99 H43        -0.8720   -5.6980   -3.0510 ha        1 MOL      0.124367
    100 H44        -5.1280   -5.4390   -2.8760 ha        1 MOL      0.124367
    101 H45        -2.1840   -5.3670   -4.8470 ho        1 MOL      0.325054
    102 N10        -0.4600   -3.5430    1.7230 n         1 MOL     -0.984006
    103 C34         0.7050   -2.7690    1.3410 c3        1 MOL      0.664588
    104 C35         1.8440   -3.6570    0.7730 c         1 MOL      0.316284
    105 O15         1.7400   -4.8900    0.8250 o         1 MOL     -0.541718
    106 C36         1.2630   -1.8900    2.4970 c3        1 MOL      0.241109
    107 C37         1.5610   -2.6260    3.8180 c3        1 MOL     -0.053720
    108 C38         0.2550   -0.7860    2.7490 c3        1 MOL      0.048946
    109 C39         3.0740   -2.6850    4.0700 c3        1 MOL      0.103140
    110 H46        -0.4390   -4.1760    2.5140 hn        1 MOL      0.419926
    111 H47         0.5060   -1.9640    0.6460 h1        1 MOL     -0.192037
    112 H48         2.2210   -1.4880    2.1770 hc        1 MOL     -0.119205
    113 H49         1.1520   -3.6350    3.8210 hc        1 MOL     -0.025858
    114 H50         1.1480   -2.1130    4.6890 hc        1 MOL     -0.025858
    115 H51         0.6620    0.0120    3.3740 hc        1 MOL     -0.013233
    116 H52        -0.1410   -0.2920    1.8570 hc        1 MOL     -0.013233
    117 H53        -0.6690   -1.2450    3.0800 hc        1 MOL     -0.013233
    118 H54         3.4500   -3.4780    3.4240 hc        1 MOL     -0.026465
    119 H55         3.6090   -1.7620    3.8700 hc        1 MOL     -0.026465
    120 H56         3.2700   -2.9200    5.1160 hc        1 MOL     -0.026465
    121 N11         2.9060   -3.0480    0.3120 n         1 MOL     -0.051446
    122 C40         4.1250   -3.7600   -0.2430 c3        1 MOL     -0.148754
    123 C41         5.4220   -3.0620    0.1390 c         1 MOL      0.629752
    124 O16         5.3420   -2.0120    0.7440 o         1 MOL     -0.587760
    125 C42         4.0200   -3.8330   -1.7760 c3        1 MOL      0.031587
    126 O17         4.3090   -2.6190   -2.2740 oh        1 MOL     -0.490571
    127 H57         2.9100   -2.0430    0.4060 hn        1 MOL      0.096937
    128 H58         4.1260   -4.7630    0.2040 h1        1 MOL      0.100190
    129 H59         3.0000   -4.0730   -2.0810 h1        1 MOL      0.055377
    130 H60         4.7280   -4.5670   -2.1670 h1        1 MOL      0.055377
    131 H61         4.9180   -2.5960   -3.0210 ho        1 MOL      0.373876
    132 N12         6.5160   -3.6170   -0.2760 n         1 MOL     -0.503981
    133 C43         7.8950   -3.1320   -0.0250 c3        1 MOL      0.231115
    134 C44         8.0540   -1.6270   -0.4690 c         1 MOL      0.382094
    135 O18         8.6420   -0.8480    0.2480 o         1 MOL     -0.497585
    136 C45         8.8480   -4.0480   -0.6640 c3        1 MOL     -0.332597
    137 H62         6.4760   -4.5100   -0.7540 hn        1 MOL      0.288015
    138 H63         8.1600   -3.2310    1.0320 h1        1 MOL      0.066163
    139 H64         8.6490   -5.0660   -0.3190 hc        1 MOL      0.098842
    140 H65         8.8690   -3.9550   -1.7510 hc        1 MOL      0.098842
    141 H66         9.8320   -3.7720   -0.2830 hc        1 MOL      0.098842
    142 N13         7.4860   -1.2670   -1.5770 n         1 MOL     -0.211220
    143 C46         7.5580    0.0520   -2.1590 c3        1 MOL      0.003619
    144 C47         6.7780    0.9880   -1.2520 c         1 MOL      0.363792
    145 O19         7.2690    2.0800   -0.9930 o         1 MOL     -0.509570
    146 C48         7.0000   -0.0020   -3.6000 c3        1 MOL     -0.263615
    147 H67         7.1230   -2.0180   -2.1450 hn        1 MOL      0.184866
    148 H68         8.5730    0.4450   -2.1410 h1        1 MOL      0.116589
    149 H69         6.9240    1.0000   -4.0190 hc        1 MOL      0.081928
    150 H70         7.7010   -0.5180   -4.2610 hc        1 MOL      0.081928
    151 H71         5.9910   -0.3950   -3.7280 hc        1 MOL      0.081928
    152 N14         5.5600    0.6240   -0.8440 n         1 MOL     -0.178846
    153 C49         4.8620    1.4490    0.1020 c3        1 MOL     -0.040408
    154 C50         5.3490    1.4150    1.5610 c         1 MOL      0.467381
    155 O20         5.0820    2.4300    2.2290 o         1 MOL     -0.514950
    156 C51         3.3270    1.0460    0.1060 c3        1 MOL     -0.299944
    157 C52         2.6330    1.3870   -1.1870 c3        1 MOL      0.129014
    158 C53         1.2180    0.9000   -0.9030 c         1 MOL      0.616965
    159 O21         0.3690    1.5130   -0.2370 o         1 MOL     -0.745614
    160 O22         0.8650   -0.2980   -1.1940 o         1 MOL     -0.745614
    161 H72         5.2150   -0.2940   -1.0920 hn        1 MOL      0.228038
    162 H73         4.9050    2.4890   -0.2510 h1        1 MOL      0.058301
    163 H74         2.9400    1.7040    0.8860 hc        1 MOL      0.161894
    164 H75         3.2170   -0.0140    0.3230 hc        1 MOL      0.161894
    165 H76         3.1290    0.7430   -1.9160 hc        1 MOL     -0.056195
    166 H77         2.6920    2.3980   -1.5920 hc        1 MOL     -0.056195
    167 N15         6.1050    0.3860    1.9960 n         1 MOL     -0.181727
    168 C54         6.6010    0.3490    3.4350 c3        1 MOL     -0.253812
    169 H78         7.4150    1.0640    3.5570 h1        1 MOL      0.113123
    170 H79         5.7850    0.6090    4.1080 h1        1 MOL      0.113123
    171 H80         6.9600   -0.6530    3.6700 h1        1 MOL      0.113123
    172 H81         6.2900   -0.4050    1.3940 hn        1 MOL      0.227297
    173 Ca1        -1.6580   -0.0210   -1.0160 Ca        1 MOL      1.757650
    174 O23        -1.1370   -2.1250   -2.9650 oh        1 MOL     -0.760551
    175 H82        -1.3240   -3.0280   -3.2060 ho        1 MOL      0.372691
    176 H83        -0.2200   -1.9960   -3.2110 ho        1 MOL      0.372691
@<TRIPOS>BOND
     1    1    2 1   
     2    1    4 1   
     3    1    5 1   
     4    1    6 1   
     5    2    3 2   
     6    2    7 1   
     7    7    8 1   
     8    7   15 1   
     9    8    9 1   
    10    8   11 1   
    11    8   16 1   
    12    9   10 2   
    13    9   19 1   
    14   11   12 1   
    15   11   17 1   
    16   11   18 1   
    17   12   13 1   
    18   12   14 1   
    19   19   20 1   
    20   19   28 1   
    21   20   21 1   
    22   20   23 1   
    23   20   29 1   
    24   21   22 2   
    25   21   41 1   
    26   23   24 1   
    27   23   30 1   
    28   23   31 1   
    29   24   25 1   
    30   24   32 1   
    31   24   33 1   
    32   25   26 1   
    33   25   34 1   
    34   25   35 1   
    35   26   27 1   
    36   26   36 1   
    37   26   37 1   
    38   27   38 1   
    39   27   39 1   
    40   27   40 1   
    41   41   42 1   
    42   41   49 1   
    43   42   43 1   
    44   42   45 1   
    45   42   50 1   
    46   43   44 2   
    47   43   53 1   
    48   45   46 1   
    49   45   51 1   
    50   45   52 1   
    51   46   47 1   
    52   46   48 1   
    53   53   54 1   
    54   53   57 1   
    55   54   55 1   
    56   54   58 1   
    57   54   59 1   
    58   55   56 2   
    59   55   60 1   
    60   60   61 1   
    61   60   68 1   
    62   61   62 1   
    63   61   64 1   
    64   61   69 1   
    65   62   63 2   
    66   62   74 1   
    67   64   65 1   
    68   64   70 1   
    69   64   71 1   
    70   65   66 1   
    71   65   67 2   
    72   66   72 1   
    73   66   73 1   
    74   74   75 1   
    75   74   78 1   
    76   75   76 1   
    77   75   79 1   
    78   75   80 1   
    79   76   77 2   
    80   76   81 1   
    81   81   82 1   
    82   81   93 1   
    83   82   83 1   
    84   82   85 1   
    85   82   94 1   
    86   83   84 2   
    87   83  102 1   
    88   85   86 1   
    89   85   95 1   
    90   85   96 1   
    91   86   87 ar  
    92   86   88 ar  
    93   87   89 ar  
    94   87   97 1   
    95   88   90 ar  
    96   88   98 1   
    97   89   91 ar  
    98   89   99 1   
    99   90   91 ar  
   100   90  100 1   
   101   91   92 1   
   102   92  101 1   
   103  102  103 1   
   104  102  110 1   
   105  103  104 1   
   106  103  106 1   
   107  103  111 1   
   108  104  105 2   
   109  104  121 1   
   110  106  107 1   
   111  106  108 1   
   112  106  112 1   
   113  107  109 1   
   114  107  113 1   
   115  107  114 1   
   116  108  115 1   
   117  108  116 1   
   118  108  117 1   
   119  109  118 1   
   120  109  119 1   
   121  109  120 1   
   122  121  122 1   
   123  121  127 1   
   124  122  123 1   
   125  122  125 1   
   126  122  128 1   
   127  123  124 2   
   128  123  132 1   
   129  125  126 1   
   130  125  129 1   
   131  125  130 1   
   132  126  131 1   
   133  132  133 1   
   134  132  137 1   
   135  133  134 1   
   136  133  136 1   
   137  133  138 1   
   138  134  135 2   
   139  134  142 1   
   140  136  139 1   
   141  136  140 1   
   142  136  141 1   
   143  142  143 1   
   144  142  147 1   
   145  143  144 1   
   146  143  146 1   
   147  143  148 1   
   148  144  145 2   
   149  144  152 1   
   150  146  149 1   
   151  146  150 1   
   152  146  151 1   
   153  152  153 1   
   154  152  161 1   
   155  153  154 1   
   156  153  156 1   
   157  153  162 1   
   158  154  155 2   
   159  154  167 1   
   160  156  157 1   
   161  156  163 1   
   162  156  164 1   
   163  157  158 1   
   164  157  165 1   
   165  157  166 1   
   166  158  159 1   
   167  158  160 1   
   168  167  168 1   
   169  167  172 1   
   170  168  169 1   
   171  168  170 1   
   172  168  171 1   
   173  174  175 1   
   174  174  176 1   
@<TRIPOS>SUBSTRUCTURE
     1 MOL         1 TEMP              0 ****  ****    0 ROOT
