@<TRIPOS>MOLECULE
MOL
  176   174     1     0     0
SMALL
resp


@<TRIPOS>ATOM
      1 C1          0.7030    3.7180    6.1030 c3        1 MOL     -0.381890
      2 C2          0.6260    3.3070    4.6040 c         1 MOL      0.682932
      3 O1          1.5470    2.7550    3.9760 o         1 MOL     -0.591972
      4 H1          1.4780    4.4740    6.2320 hc        1 MOL      0.105426
      5 H2         -0.2580    4.1240    6.4190 hc        1 MOL      0.105426
      6 H3          0.9450    2.8440    6.7070 hc        1 MOL      0.105426
      7 N1         -0.5750    3.3970    4.0220 n         1 MOL     -0.578999
      8 C3         -0.9650    2.9950    2.6390 c3        1 MOL      0.123657
      9 C4         -1.2090    4.2810    1.8300 c         1 MOL      0.502417
     10 O2         -2.1370    5.0400    2.1310 o         1 MOL     -0.539747
     11 C5         -2.1150    1.9820    2.7340 c3        1 MOL      0.024996
     12 C6         -2.5880    1.4770    1.3580 c         1 MOL      0.465751
     13 O3         -2.1870    2.0760    0.3130 o         1 MOL     -0.656975
     14 O4         -3.2500    0.4030    1.1970 o         1 MOL     -0.656975
     15 H4         -1.3390    3.6120    4.6510 hn        1 MOL      0.300127
     16 H5         -0.1300    2.4350    2.2200 h1        1 MOL      0.113846
     17 H6         -2.9270    2.5670    3.1770 hc        1 MOL      0.024463
     18 H7         -1.9230    1.2050    3.4770 hc        1 MOL      0.024463
     19 N2         -0.4520    4.5010    0.7380 n         1 MOL     -0.362515
     20 C7         -0.6000    5.7160   -0.1380 c3        1 MOL     -0.088112
     21 C8         -1.7830    5.6850   -1.0910 c         1 MOL      0.545753
     22 O5         -1.9620    6.6440   -1.8620 o         1 MOL     -0.561981
     23 C9          0.7620    6.0740   -0.7790 c3        1 MOL     -0.135822
     24 C10         1.2750    4.9740   -1.6410 c3        1 MOL      0.160403
     25 C11         2.6770    5.1780   -2.2140 c3        1 MOL     -0.282168
     26 C12         2.8630    6.5040   -2.9350 c3        1 MOL      0.180352
     27 N3          4.2960    6.7120   -3.2380 n4        1 MOL     -0.428551
     28 H8          0.1860    3.7490    0.5170 hn        1 MOL      0.209743
     29 H9         -0.8170    6.5340    0.5430 h1        1 MOL      0.131705
     30 H10         1.5310    6.2490   -0.0240 hc        1 MOL      0.056633
     31 H11         0.5760    6.9620   -1.3950 hc        1 MOL      0.056633
     32 H12         0.5760    4.6560   -2.4090 hc        1 MOL      0.028424
     33 H13         1.2230    4.0330   -1.0810 hc        1 MOL      0.028424
     34 H14         2.9110    4.3550   -2.8930 hc        1 MOL      0.118052
     35 H15         3.3020    5.2170   -1.3300 hc        1 MOL      0.118052
     36 H16         2.4110    7.2200   -2.2540 hx        1 MOL      0.043474
     37 H17         2.3380    6.5560   -3.8950 hx        1 MOL      0.043474
     38 H18         4.8600    6.9700   -2.4390 hn        1 MOL      0.340451
     39 H19         4.7270    5.9270   -3.6920 hn        1 MOL      0.340451
     40 H20         4.4120    7.4220   -3.9360 hn        1 MOL      0.340451
     41 N4         -2.6020    4.6140   -1.0260 n         1 MOL     -0.374738
     42 C13        -3.7720    4.4500   -1.8370 c3        1 MOL      0.070815
     43 C14        -4.9480    3.8240   -1.0060 c         1 MOL      0.365041
     44 O6         -6.0770    3.9320   -1.4880 o         1 MOL     -0.525390
     45 C15        -3.4420    3.6280   -3.1090 c3        1 MOL     -0.308928
     46 C16        -2.8960    2.1850   -2.8020 c         1 MOL      0.753261
     47 O7         -3.6490    1.2180   -2.4690 o         1 MOL     -0.752893
     48 O8         -1.6620    1.9640   -2.6890 o         1 MOL     -0.752893
     49 H21        -2.3280    3.8130   -0.4860 hn        1 MOL      0.329147
     50 H22        -4.2010    5.4180   -2.0680 h1        1 MOL      0.107696
     51 H23        -2.6040    4.0730   -3.6400 hc        1 MOL      0.085640
     52 H24        -4.3450    3.6700   -3.7250 hc        1 MOL      0.085640
     53 N5         -4.6520    3.3170    0.1410 n         1 MOL     -0.000856
     54 C17        -5.6350    2.7710    1.0690 c3        1 MOL     -0.261020
     55 C18        -6.5500    1.5980    0.6520 c         1 MOL      0.530747
     56 O9         -7.6640    1.5260    1.1390 o         1 MOL     -0.543806
     57 H25        -3.6690    3.3640    0.3240 hn        1 MOL      0.021984
     58 H26        -6.3730    3.5650    1.2100 h1        1 MOL      0.115139
     59 H27        -5.0840    2.5200    1.9830 h1        1 MOL      0.115139
     60 N6         -6.0270    0.6960   -0.1710 n         1 MOL     -0.242586
     61 C19        -6.8120   -0.4890   -0.6010 c3        1 MOL     -0.045684
     62 C20        -6.8560   -1.6700    0.4110 c         1 MOL      0.402810
     63 O10        -7.6620   -2.5690    0.1510 o         1 MOL     -0.527279
     64 C21        -6.2310   -0.9330   -1.9620 c3        1 MOL     -0.161473
     65 C22        -5.0290   -1.8630   -1.8530 c         1 MOL      0.509156
     66 N7         -5.0080   -3.0570   -2.3790 n         1 MOL     -0.580635
     67 O11        -4.0620   -1.6480   -1.0420 o         1 MOL     -0.541024
     68 H28        -5.1950    0.8200   -0.7190 hn        1 MOL      0.233115
     69 H29        -7.8210   -0.1270   -0.8040 h1        1 MOL      0.131601
     70 H30        -5.9940   -0.0610   -2.5710 hc        1 MOL      0.077772
     71 H31        -7.0210   -1.4880   -2.4730 hc        1 MOL      0.077772
     72 H32        -5.6900   -3.1120   -3.1220 hn        1 MOL      0.307502
     73 H33        -4.3120   -3.7580   -2.1870 hn        1 MOL      0.307502
     74 N8         -6.0030   -1.6700    1.4300 n         1 MOL     -0.152127
     75 C23        -6.0390   -2.7310    2.3480 c3        1 MOL     -0.119586
     76 C24        -4.8040   -3.6190    2.4920 c         1 MOL      0.555489
     77 O12        -4.7550   -4.3940    3.4320 o         1 MOL     -0.560212
     78 H34        -5.2740   -0.9700    1.4440 hn        1 MOL      0.187308
     79 H35        -6.8460   -3.4570    2.2130 h1        1 MOL      0.089172
     80 H36        -6.1620   -2.2930    3.3290 h1        1 MOL      0.089172
     81 N9         -3.7920   -3.4000    1.6080 n         1 MOL     -0.367646
     82 C25        -2.4680   -4.0810    1.6320 c3        1 MOL      0.082079
     83 C26        -1.3430   -3.1350    1.2680 c         1 MOL      0.355172
     84 O13        -1.4590   -2.2590    0.4250 o         1 MOL     -0.505017
     85 C27        -2.4930   -5.3810    0.9260 c3        1 MOL     -0.283356
     86 C28        -2.4270   -5.3520   -0.5780 ca        1 MOL      0.099570
     87 C29        -1.1570   -5.0910   -1.1770 ca        1 MOL     -0.110959
     88 C30        -3.4900   -5.8510   -1.3100 ca        1 MOL     -0.110959
     89 C31        -0.9900   -5.2170   -2.5670 ca        1 MOL     -0.285679
     90 C32        -3.3320   -6.0190   -2.7270 ca        1 MOL     -0.285679
     91 C33        -2.0810   -5.7440   -3.3300 ca        1 MOL      0.320584
     92 O14        -2.0260   -5.8230   -4.6850 oh        1 MOL     -0.519823
     93 H37        -3.9060   -2.6970    0.8940 hn        1 MOL      0.235458
     94 H38        -2.2680   -4.2430    2.6840 h1        1 MOL      0.076404
     95 H39        -3.3570   -5.9490    1.2680 hc        1 MOL      0.113819
     96 H40        -1.5880   -5.8880    1.2550 hc        1 MOL      0.113819
     97 H41        -0.3670   -4.6030   -0.6290 ha        1 MOL      0.144646
     98 H42        -4.4440   -6.1160   -0.8930 ha        1 MOL      0.144646
     99 H43        -0.0840   -4.9040   -3.0710 ha        1 MOL      0.157565
    100 H44        -4.2420   -6.2810   -3.2480 ha        1 MOL      0.157565
    101 H45        -1.1750   -5.6920   -5.1030 ho        1 MOL      0.388634
    102 N10        -0.1920   -3.4000    1.9130 n         1 MOL     -0.186211
    103 C34         1.1290   -2.7750    1.5620 c3        1 MOL     -0.411148
    104 C35         2.1660   -3.6750    0.9060 c         1 MOL      0.486376
    105 O15         2.1760   -4.9070    1.1400 o         1 MOL     -0.545919
    106 C36         1.7120   -1.9850    2.8010 c3        1 MOL      0.303774
    107 C37         2.0210   -2.9610    3.9240 c3        1 MOL     -0.059009
    108 C38         0.6110   -0.8930    3.0580 c3        1 MOL     -0.383749
    109 C39         2.7190   -2.3630    5.1480 c3        1 MOL     -0.328728
    110 H46        -0.1460   -4.1030    2.6310 hn        1 MOL      0.232392
    111 H47         0.8690   -2.0650    0.7750 h1        1 MOL      0.197612
    112 H48         2.6650   -1.5430    2.5230 hc        1 MOL     -0.055497
    113 H49         2.7630   -3.6600    3.5570 hc        1 MOL      0.061506
    114 H50         1.1080   -3.4480    4.2660 hc        1 MOL      0.061506
    115 H51        -0.1640   -1.3380    3.6790 hc        1 MOL      0.106344
    116 H52         1.0120   -0.0230    3.5780 hc        1 MOL      0.106344
    117 H53         0.0750   -0.5300    2.1820 hc        1 MOL      0.106344
    118 H54         2.3450   -1.4030    5.4900 hc        1 MOL      0.088210
    119 H55         2.4520   -2.9350    6.0330 hc        1 MOL      0.088210
    120 H56         3.7890   -2.3060    4.9540 hc        1 MOL      0.088210
    121 N11         3.0140   -3.0740    0.0760 n         1 MOL     -0.177255
    122 C40         4.2650   -3.6880   -0.4730 c3        1 MOL     -0.027296
    123 C41         5.4970   -3.0000    0.0900 c         1 MOL      0.503062
    124 O16         5.4020   -2.0070    0.8210 o         1 MOL     -0.426379
    125 C42         4.2720   -3.7040   -1.9830 c3        1 MOL     -0.050582
    126 O17         4.2460   -2.3630   -2.4470 oh        1 MOL     -0.525179
    127 H57         2.7960   -2.1030   -0.0880 hn        1 MOL      0.197774
    128 H58         4.3430   -4.6710    0.0020 h1        1 MOL      0.096559
    129 H59         3.4460   -4.2550   -2.4310 h1        1 MOL      0.078309
    130 H60         5.1950   -4.1430   -2.3470 h1        1 MOL      0.078309
    131 H61         3.5930   -2.2740   -3.1370 ho        1 MOL      0.418971
    132 N12         6.7010   -3.4170   -0.3480 n         1 MOL     -0.446859
    133 C43         8.0570   -2.7720   -0.0320 c3        1 MOL      0.083998
    134 C44         8.1810   -1.2800   -0.5340 c         1 MOL      0.420268
    135 O18         8.7800   -0.4900    0.1740 o         1 MOL     -0.465220
    136 C45         9.0960   -3.5990   -0.7490 c3        1 MOL     -0.261987
    137 H62         6.7140   -4.2380   -0.9350 hn        1 MOL      0.275566
    138 H63         8.2130   -2.7150    1.0390 h1        1 MOL      0.104515
    139 H64         9.3500   -4.5790   -0.3260 hc        1 MOL      0.086016
    140 H65         8.9570   -3.6640   -1.8310 hc        1 MOL      0.086016
    141 H66        10.0080   -3.0020   -0.7460 hc        1 MOL      0.086016
    142 N13         7.4110   -0.9770   -1.6300 n         1 MOL     -0.260282
    143 C46         7.2880    0.3790   -2.1600 c3        1 MOL     -0.000224
    144 C47         6.5130    1.3010   -1.3020 c         1 MOL      0.372724
    145 O19         6.8850    2.4900   -1.1080 o         1 MOL     -0.526531
    146 C48         6.7020    0.2870   -3.6410 c3        1 MOL     -0.418229
    147 H67         6.9490   -1.7290   -2.1150 hn        1 MOL      0.238607
    148 H68         8.3090    0.7530   -2.2370 h1        1 MOL      0.121194
    149 H69         5.6940   -0.0990   -3.7070 hc        1 MOL      0.123548
    150 H70         6.5480    1.2790   -4.0620 hc        1 MOL      0.123548
    151 H71         7.4790   -0.2680   -4.1730 hc        1 MOL      0.123548
    152 N14         5.4460    0.7750   -0.6520 n         1 MOL     -0.117232
    153 C49         4.6130    1.5610    0.2220 c3        1 MOL      0.006269
    154 C50         5.0730    1.6500    1.6910 c         1 MOL      0.500573
    155 O20         5.1350    2.7540    2.2200 o         1 MOL     -0.561338
    156 C51         3.1300    1.0970    0.3160 c3        1 MOL      0.078862
    157 C52         2.4840    0.9090   -1.0350 c3        1 MOL      0.133832
    158 C53         1.0490    0.3890   -0.9700 c         1 MOL      0.705598
    159 O21         0.3820    0.6910   -0.0010 o         1 MOL     -0.760790
    160 O22         0.6340   -0.3890   -1.8330 o         1 MOL     -0.760790
    161 H72         5.4480   -0.2390   -0.6610 hn        1 MOL      0.100471
    162 H73         4.5720    2.5740   -0.1850 h1        1 MOL      0.004859
    163 H74         2.6160    1.8940    0.8440 hc        1 MOL     -0.002154
    164 H75         2.9250    0.1930    0.8830 hc        1 MOL     -0.002154
    165 H76         2.9590    0.1330   -1.6430 hc        1 MOL     -0.102161
    166 H77         2.5330    1.8370   -1.6000 hc        1 MOL     -0.102161
    167 N15         5.6430    0.6340    2.2670 n         1 MOL     -0.133081
    168 C54         6.3980    0.6590    3.4720 c3        1 MOL     -0.204258
    169 H78         6.6090    1.6920    3.7470 h1        1 MOL      0.088820
    170 H79         5.8270    0.1820    4.2690 h1        1 MOL      0.088820
    171 H80         7.3350    0.1230    3.3260 h1        1 MOL      0.088820
    172 H81         5.6340   -0.2450    1.7800 hn        1 MOL      0.154629
    173 Ca1        -1.9090   -0.0930   -1.0490 Ca        1 MOL      1.778381
    174 O23        -1.7100   -1.8240   -3.1400 oh        1 MOL     -0.906443
    175 H82        -2.2190   -1.8890   -3.9400 ho        1 MOL      0.429751
    176 H83        -0.9540   -2.3850   -3.2860 ho        1 MOL      0.429751
@<TRIPOS>BOND
     1    1    2 1   
     2    1    4 1   
     3    1    5 1   
     4    1    6 1   
     5    2    3 2   
     6    2    7 1   
     7    7    8 1   
     8    7   15 1   
     9    8    9 1   
    10    8   11 1   
    11    8   16 1   
    12    9   10 2   
    13    9   19 1   
    14   11   12 1   
    15   11   17 1   
    16   11   18 1   
    17   12   13 1   
    18   12   14 1   
    19   19   20 1   
    20   19   28 1   
    21   20   21 1   
    22   20   23 1   
    23   20   29 1   
    24   21   22 2   
    25   21   41 1   
    26   23   24 1   
    27   23   30 1   
    28   23   31 1   
    29   24   25 1   
    30   24   32 1   
    31   24   33 1   
    32   25   26 1   
    33   25   34 1   
    34   25   35 1   
    35   26   27 1   
    36   26   36 1   
    37   26   37 1   
    38   27   38 1   
    39   27   39 1   
    40   27   40 1   
    41   41   42 1   
    42   41   49 1   
    43   42   43 1   
    44   42   45 1   
    45   42   50 1   
    46   43   44 2   
    47   43   53 1   
    48   45   46 1   
    49   45   51 1   
    50   45   52 1   
    51   46   47 1   
    52   46   48 1   
    53   53   54 1   
    54   53   57 1   
    55   54   55 1   
    56   54   58 1   
    57   54   59 1   
    58   55   56 2   
    59   55   60 1   
    60   60   61 1   
    61   60   68 1   
    62   61   62 1   
    63   61   64 1   
    64   61   69 1   
    65   62   63 2   
    66   62   74 1   
    67   64   65 1   
    68   64   70 1   
    69   64   71 1   
    70   65   66 1   
    71   65   67 2   
    72   66   72 1   
    73   66   73 1   
    74   74   75 1   
    75   74   78 1   
    76   75   76 1   
    77   75   79 1   
    78   75   80 1   
    79   76   77 2   
    80   76   81 1   
    81   81   82 1   
    82   81   93 1   
    83   82   83 1   
    84   82   85 1   
    85   82   94 1   
    86   83   84 2   
    87   83  102 1   
    88   85   86 1   
    89   85   95 1   
    90   85   96 1   
    91   86   87 ar  
    92   86   88 ar  
    93   87   89 ar  
    94   87   97 1   
    95   88   90 ar  
    96   88   98 1   
    97   89   91 ar  
    98   89   99 1   
    99   90   91 ar  
   100   90  100 1   
   101   91   92 1   
   102   92  101 1   
   103  102  103 1   
   104  102  110 1   
   105  103  104 1   
   106  103  106 1   
   107  103  111 1   
   108  104  105 2   
   109  104  121 1   
   110  106  107 1   
   111  106  108 1   
   112  106  112 1   
   113  107  109 1   
   114  107  113 1   
   115  107  114 1   
   116  108  115 1   
   117  108  116 1   
   118  108  117 1   
   119  109  118 1   
   120  109  119 1   
   121  109  120 1   
   122  121  122 1   
   123  121  127 1   
   124  122  123 1   
   125  122  125 1   
   126  122  128 1   
   127  123  124 2   
   128  123  132 1   
   129  125  126 1   
   130  125  129 1   
   131  125  130 1   
   132  126  131 1   
   133  132  133 1   
   134  132  137 1   
   135  133  134 1   
   136  133  136 1   
   137  133  138 1   
   138  134  135 2   
   139  134  142 1   
   140  136  139 1   
   141  136  140 1   
   142  136  141 1   
   143  142  143 1   
   144  142  147 1   
   145  143  144 1   
   146  143  146 1   
   147  143  148 1   
   148  144  145 2   
   149  144  152 1   
   150  146  149 1   
   151  146  150 1   
   152  146  151 1   
   153  152  153 1   
   154  152  161 1   
   155  153  154 1   
   156  153  156 1   
   157  153  162 1   
   158  154  155 2   
   159  154  167 1   
   160  156  157 1   
   161  156  163 1   
   162  156  164 1   
   163  157  158 1   
   164  157  165 1   
   165  157  166 1   
   166  158  159 1   
   167  158  160 1   
   168  167  168 1   
   169  167  172 1   
   170  168  169 1   
   171  168  170 1   
   172  168  171 1   
   173  174  175 1   
   174  174  176 1   
@<TRIPOS>SUBSTRUCTURE
     1 MOL         1 TEMP              0 ****  ****    0 ROOT
