@<TRIPOS>MOLECULE
MOL
  175   173     1     0     0
SMALL
resp


@<TRIPOS>ATOM
      1 C1          1.0250    4.3370    5.0100 c3        1 MOL     -0.340925
      2 C2          0.3030    4.2150    3.6400 c         1 MOL      0.717027
      3 O1          0.9370    4.1910    2.6030 o         1 MOL     -0.551664
      4 H1          0.8340    3.4420    5.6030 hc        1 MOL      0.079795
      5 H2          2.0980    4.4420    4.8480 hc        1 MOL      0.079795
      6 H3          0.6500    5.2120    5.5410 hc        1 MOL      0.079795
      7 N1         -0.9880    4.0880    3.6450 n         1 MOL     -0.655756
      8 C3         -1.7750    3.8100    2.4120 c3        1 MOL      0.061121
      9 C4         -1.9220    5.0260    1.5050 c         1 MOL      0.709782
     10 O2         -2.0970    6.1360    1.8780 o         1 MOL     -0.572834
     11 C5         -3.1340    3.3030    2.8670 c3        1 MOL     -0.341178
     12 C6         -3.9050    2.7700    1.7100 c         1 MOL      0.682431
     13 O3         -5.1710    2.8310    1.7890 o         1 MOL     -0.657098
     14 O4         -3.4400    2.1280    0.7390 o         1 MOL     -0.657098
     15 H4         -1.4590    4.2130    4.5250 hn        1 MOL      0.334514
     16 H5         -1.2710    3.1370    1.7230 h1        1 MOL      0.187352
     17 H6         -3.7730    4.0430    3.3450 hc        1 MOL      0.100103
     18 H7         -3.0840    2.4620    3.5620 hc        1 MOL      0.100103
     19 N2         -1.8740    4.7000    0.1830 n         1 MOL     -0.697017
     20 C7         -2.5460    5.5980   -0.8520 c3        1 MOL      0.387950
     21 C8         -3.5460    4.9880   -1.8700 c         1 MOL      0.459817
     22 O5         -3.8250    5.6250   -2.8860 o         1 MOL     -0.570216
     23 C9         -1.3860    6.2600   -1.6190 c3        1 MOL     -0.218781
     24 H8         -1.6850    3.7550   -0.1300 hn        1 MOL      0.336414
     25 H9         -3.0860    6.4110   -0.3680 h1        1 MOL     -0.015717
     26 H10        -0.8180    5.4560   -2.0780 hc        1 MOL      0.043947
     27 H11        -1.7320    6.9640   -2.3700 hc        1 MOL      0.043947
     28 H12        -0.7040    6.7550   -0.9390 hc        1 MOL      0.043947
     29 N3         -4.1810    3.8490   -1.6450 n         1 MOL     -0.417890
     30 C10        -5.0040    3.1860   -2.6970 c3        1 MOL      0.053542
     31 C11        -6.1730    2.3250   -2.1660 c         1 MOL      0.343997
     32 O6         -6.9520    1.7400   -2.9270 o         1 MOL     -0.537533
     33 C12        -4.0400    2.3090   -3.4950 c3        1 MOL     -0.108807
     34 C13        -3.3630    1.1770   -2.6750 c         1 MOL      0.691702
     35 O7         -2.1050    1.0830   -2.6350 o         1 MOL     -0.705606
     36 O8         -4.1510    0.5420   -1.8490 o         1 MOL     -0.705606
     37 H13        -3.9980    3.3670   -0.7860 hn        1 MOL      0.235755
     38 H14        -5.3830    3.8720   -3.4540 h1        1 MOL      0.111011
     39 H15        -3.3160    3.0150   -3.9030 hc        1 MOL      0.036013
     40 H16        -4.4890    1.8400   -4.3600 hc        1 MOL      0.036013
     41 N4         -6.3110    2.0880   -0.8300 n         1 MOL     -0.082290
     42 C14        -7.3830    1.2980   -0.2500 c3        1 MOL     -0.385064
     43 C15        -7.4090   -0.2280   -0.6160 c         1 MOL      0.554517
     44 O9         -8.4510   -0.8670   -0.3200 o         1 MOL     -0.655530
     45 H17        -5.5570    2.3440   -0.2120 hn        1 MOL      0.082793
     46 H18        -8.3410    1.7140   -0.5660 h1        1 MOL      0.154974
     47 H19        -7.1910    1.3970    0.8240 h1        1 MOL      0.154974
     48 N5         -6.4180   -0.8760   -1.1810 n         1 MOL     -0.121972
     49 C16        -6.4220   -2.1800   -1.8120 c3        1 MOL     -0.286267
     50 C17        -6.2390   -3.3520   -0.7590 c         1 MOL      0.481513
     51 O10        -6.2730   -4.5260   -1.1760 o         1 MOL     -0.520166
     52 C18        -5.3510   -2.2220   -2.9210 c3        1 MOL      0.087503
     53 C19        -3.9270   -2.5280   -2.3880 c         1 MOL      0.463686
     54 N6         -3.0640   -2.9560   -3.2030 n         1 MOL     -0.675017
     55 O11        -3.5750   -2.1670   -1.2700 o         1 MOL     -0.380334
     56 H20        -5.5320   -0.4290   -1.3490 hn        1 MOL      0.260340
     57 H21        -7.4460   -2.2440   -2.1830 h1        1 MOL      0.150558
     58 H22        -5.3280   -1.4160   -3.6470 hc        1 MOL      0.012284
     59 H23        -5.6420   -3.0210   -3.5930 hc        1 MOL      0.012284
     60 H24        -3.1780   -3.1400   -4.1930 hn        1 MOL      0.350256
     61 H25        -2.1330   -3.0560   -2.8220 hn        1 MOL      0.350256
     62 N7         -6.2520   -3.0460    0.5630 n         1 MOL     -0.155520
     63 C20        -6.3010   -4.0380    1.5810 c3        1 MOL     -0.372460
     64 C21        -4.9020   -4.5500    2.0070 c         1 MOL      0.600314
     65 O12        -4.8590   -5.5840    2.7220 o         1 MOL     -0.599000
     66 H26        -6.3530   -2.0890    0.8830 hn        1 MOL      0.246399
     67 H27        -6.8720   -4.8840    1.2100 h1        1 MOL      0.140513
     68 H28        -6.7100   -3.4990    2.4380 h1        1 MOL      0.140513
     69 N8         -3.8620   -3.9770    1.4850 n         1 MOL     -0.244485
     70 C22        -2.4580   -4.4200    1.6940 c3        1 MOL     -0.241439
     71 C23        -1.5020   -3.2220    1.7930 c         1 MOL      0.562099
     72 O13        -1.7850   -2.2240    1.1210 o         1 MOL     -0.560484
     73 C24        -1.8590   -5.2940    0.4530 c3        1 MOL      0.575887
     74 C25        -2.2730   -6.7500    0.6080 c3        1 MOL     -0.639723
     75 O14        -2.4520   -4.8640   -0.7620 oh        1 MOL     -0.570454
     76 H29        -3.9950   -3.2630    0.7740 hn        1 MOL      0.182050
     77 H30        -2.2980   -5.0240    2.5790 h1        1 MOL      0.106369
     78 H31        -0.7810   -5.2790    0.2780 h1        1 MOL      0.021549
     79 H32        -2.2090   -3.9520   -0.9640 ho        1 MOL      0.293257
     80 H33        -1.4980   -7.3120    0.0820 hc        1 MOL      0.155002
     81 H34        -2.2510   -6.9710    1.6750 hc        1 MOL      0.155002
     82 H35        -3.2930   -7.0490    0.3760 hc        1 MOL      0.155002
     83 N9         -0.3400   -3.4410    2.4210 n         1 MOL     -0.493389
     84 C26         0.8000   -2.5910    2.1390 c3        1 MOL     -0.009075
     85 C27         1.3130   -2.9070    0.6980 c         1 MOL      0.379628
     86 O15         1.4230   -4.0730    0.3260 o         1 MOL     -0.573811
     87 C28         1.7900   -2.7260    3.3440 c3        1 MOL      0.331094
     88 C29         1.2810   -1.9160    4.5440 c3        1 MOL      0.128097
     89 C30         3.2410   -2.2780    3.0240 c3        1 MOL     -0.441335
     90 C31         2.1070   -2.3600    5.7600 c3        1 MOL     -0.240570
     91 H36        -0.1770   -4.3280    2.8610 hn        1 MOL      0.266136
     92 H37         0.3970   -1.5790    2.1270 h1        1 MOL     -0.032775
     93 H38         1.8550   -3.7840    3.5830 hc        1 MOL     -0.028997
     94 H39         0.2710   -2.2750    4.7660 hc        1 MOL     -0.026048
     95 H40         1.2960   -0.8380    4.3480 hc        1 MOL     -0.026048
     96 H41         3.3000   -1.1820    2.9850 hc        1 MOL      0.087202
     97 H42         3.9230   -2.5720    3.8250 hc        1 MOL      0.087202
     98 H43         3.5020   -2.7740    2.0890 hc        1 MOL      0.087202
     99 H44         2.9040   -1.6250    5.9010 hc        1 MOL      0.045755
    100 H45         1.4250   -2.2620    6.6030 hc        1 MOL      0.045755
    101 H46         2.3960   -3.4100    5.7680 hc        1 MOL      0.045755
    102 N10         1.7160   -1.8980   -0.0650 n         1 MOL     -0.020608
    103 C32         2.4920   -1.9540   -1.2390 c3        1 MOL      0.002591
    104 C33         3.9040   -1.3910   -1.0460 c         1 MOL      0.503530
    105 O16         4.0950   -0.6670   -0.1060 o         1 MOL     -0.370074
    106 C34         1.7660   -1.1910   -2.3650 c3        1 MOL     -0.185043
    107 C35         0.3260   -1.6430   -2.6040 c         1 MOL      0.696432
    108 O17        -0.5840   -1.5200   -1.7430 o         1 MOL     -0.676612
    109 O18         0.0900   -2.1850   -3.6860 o         1 MOL     -0.676612
    110 H47         1.6610   -0.9820    0.3620 hn        1 MOL      0.177499
    111 H48         2.4330   -2.9710   -1.6320 h1        1 MOL      0.066940
    112 H49         2.3360   -1.3660   -3.2760 hc        1 MOL      0.042342
    113 H50         1.9260   -0.1200   -2.2270 hc        1 MOL      0.042342
    114 N11         4.9560   -1.7490   -1.9120 n         1 MOL     -0.984916
    115 C36         6.3980   -1.5180   -1.5160 c3        1 MOL      0.814065
    116 C37         6.7460   -0.0540   -1.1930 c         1 MOL      0.140262
    117 O19         7.5210    0.1800   -0.2700 o         1 MOL     -0.422703
    118 C38         7.4000   -2.1870   -2.4880 c3        1 MOL     -0.496246
    119 C39         8.8380   -1.9620   -2.1190 ca        1 MOL      0.366223
    120 C40         9.2390   -2.4660   -0.9240 ca        1 MOL     -0.299649
    121 C41         9.7750   -1.3690   -2.9700 ca        1 MOL     -0.299649
    122 C42        10.5120   -2.4090   -0.4760 ca        1 MOL     -0.017019
    123 C43        11.1240   -1.2600   -2.4860 ca        1 MOL     -0.017019
    124 C44        11.5110   -1.8500   -1.2680 ca        1 MOL     -0.221910
    125 H51         4.6710   -2.3360   -2.6750 hn        1 MOL      0.415002
    126 H52         6.5880   -2.0090   -0.5670 h1        1 MOL     -0.021314
    127 H53         7.2450   -1.7350   -3.4690 hc        1 MOL      0.106567
    128 H54         7.1690   -3.2420   -2.5470 hc        1 MOL      0.106567
    129 H55         8.4710   -2.9660   -0.3480 ha        1 MOL      0.131093
    130 H56         9.4900   -0.9230   -3.9090 ha        1 MOL      0.131093
    131 H57        10.6720   -2.8330    0.4970 ha        1 MOL      0.094261
    132 H58        11.8800   -0.6800   -2.9930 ha        1 MOL      0.094261
    133 H59        12.5210   -1.6890   -0.9340 ha        1 MOL      0.126392
    134 N12         6.1020    0.9760   -1.8810 n         1 MOL     -0.126848
    135 C45         6.1860    2.4420   -1.4930 c3        1 MOL      0.061960
    136 C46         5.7940    2.6880   -0.0290 c         1 MOL      0.208250
    137 O20         6.4260    3.4610    0.6910 o         1 MOL     -0.476431
    138 C47         5.3530    3.1370   -2.5210 c3        1 MOL      0.198775
    139 C48         5.5420    2.2900   -3.7480 c3        1 MOL     -0.289326
    140 C49         5.3950    0.8610   -3.1740 c3        1 MOL      0.079305
    141 H60         7.1810    2.8150   -1.7240 h1        1 MOL      0.048621
    142 H61         4.2960    3.1410   -2.2280 hc        1 MOL     -0.017752
    143 H62         5.7170    4.1620   -2.6350 hc        1 MOL     -0.017752
    144 H63         4.7100    2.4420   -4.4420 hc        1 MOL      0.077206
    145 H64         6.5630    2.4070   -4.0950 hc        1 MOL      0.077206
    146 H65         4.3310    0.6480   -3.0900 h1        1 MOL      0.040908
    147 H66         5.8500    0.1810   -3.8910 h1        1 MOL      0.040908
    148 N13         4.6130    2.1310    0.3250 n         1 MOL      0.001126
    149 C50         4.0110    2.3100    1.6070 c3        1 MOL     -0.148096
    150 C51         4.8540    1.5320    2.6310 c         1 MOL      0.462716
    151 O21         4.9730    1.9680    3.7560 o         1 MOL     -0.536937
    152 C52         2.6310    1.7030    1.5150 c3        1 MOL     -0.101969
    153 C53         1.9120    2.1720    0.2270 c3        1 MOL     -0.292682
    154 C54         0.4860    1.5450    0.1470 c         1 MOL      0.460804
    155 O22         0.3500    0.4990    0.7720 o         1 MOL     -0.555842
    156 O23        -0.5430    2.0800   -0.3140 o         1 MOL     -0.555842
    157 H67         4.3290    1.4040   -0.3220 hn        1 MOL      0.102458
    158 H68         3.8380    3.3640    1.8390 h1        1 MOL      0.136890
    159 H69         1.9630    2.0900    2.2840 hc        1 MOL      0.087949
    160 H70         2.7490    0.6150    1.5490 hc        1 MOL      0.087949
    161 H71         2.4130    1.8360   -0.6780 hc        1 MOL      0.107698
    162 H72         1.9210    3.2630    0.2410 hc        1 MOL      0.107698
    163 N14         5.6170    0.4230    2.2500 n         1 MOL      0.010149
    164 C55         6.4360   -0.2160    3.2430 c3        1 MOL     -0.222728
    165 H73         5.8280   -0.9130    3.8220 h1        1 MOL      0.074799
    166 H74         7.2440   -0.7600    2.7540 h1        1 MOL      0.074799
    167 H75         6.8560    0.5380    3.9090 h1        1 MOL      0.074799
    168 H76         5.5150    0.1180    1.2960 hn        1 MOL      0.040860
    169 Ca1        -2.0810   -0.0360   -0.2490 Ca        1 MOL      1.590595
    170 O24        -4.5130   -0.2820    0.9740 oh        1 MOL     -0.747458
    171 H77        -4.7380    0.6160    0.7160 ho        1 MOL      0.360247
    172 H78        -5.1310   -0.4970    1.6720 ho        1 MOL      0.360247
    173 O25        -1.5420    0.4590    2.5090 oh        1 MOL     -0.747458
    174 H79        -0.6290    0.5060    2.2230 ho        1 MOL      0.360247
    175 H80        -1.5130    0.6160    3.4510 ho        1 MOL      0.360247
@<TRIPOS>BOND
     1    1    2 1   
     2    1    4 1   
     3    1    5 1   
     4    1    6 1   
     5    2    3 2   
     6    2    7 1   
     7    7    8 1   
     8    7   15 1   
     9    8    9 1   
    10    8   11 1   
    11    8   16 1   
    12    9   10 2   
    13    9   19 1   
    14   11   12 1   
    15   11   17 1   
    16   11   18 1   
    17   12   13 1   
    18   12   14 1   
    19   19   20 1   
    20   19   24 1   
    21   20   21 1   
    22   20   23 1   
    23   20   25 1   
    24   21   22 2   
    25   21   29 1   
    26   23   26 1   
    27   23   27 1   
    28   23   28 1   
    29   29   30 1   
    30   29   37 1   
    31   30   31 1   
    32   30   33 1   
    33   30   38 1   
    34   31   32 2   
    35   31   41 1   
    36   33   34 1   
    37   33   39 1   
    38   33   40 1   
    39   34   35 1   
    40   34   36 1   
    41   41   42 1   
    42   41   45 1   
    43   42   43 1   
    44   42   46 1   
    45   42   47 1   
    46   43   44 2   
    47   43   48 1   
    48   48   49 1   
    49   48   56 1   
    50   49   50 1   
    51   49   52 1   
    52   49   57 1   
    53   50   51 2   
    54   50   62 1   
    55   52   53 1   
    56   52   58 1   
    57   52   59 1   
    58   53   54 1   
    59   53   55 2   
    60   54   60 1   
    61   54   61 1   
    62   62   63 1   
    63   62   66 1   
    64   63   64 1   
    65   63   67 1   
    66   63   68 1   
    67   64   65 2   
    68   64   69 1   
    69   69   70 1   
    70   69   76 1   
    71   70   71 1   
    72   70   73 1   
    73   70   77 1   
    74   71   72 2   
    75   71   83 1   
    76   73   74 1   
    77   73   75 1   
    78   73   78 1   
    79   74   80 1   
    80   74   81 1   
    81   74   82 1   
    82   75   79 1   
    83   83   84 1   
    84   83   91 1   
    85   84   85 1   
    86   84   87 1   
    87   84   92 1   
    88   85   86 2   
    89   85  102 1   
    90   87   88 1   
    91   87   89 1   
    92   87   93 1   
    93   88   90 1   
    94   88   94 1   
    95   88   95 1   
    96   89   96 1   
    97   89   97 1   
    98   89   98 1   
    99   90   99 1   
   100   90  100 1   
   101   90  101 1   
   102  102  103 1   
   103  102  110 1   
   104  103  104 1   
   105  103  106 1   
   106  103  111 1   
   107  104  105 2   
   108  104  114 1   
   109  106  107 1   
   110  106  112 1   
   111  106  113 1   
   112  107  108 1   
   113  107  109 1   
   114  114  115 1   
   115  114  125 1   
   116  115  116 1   
   117  115  118 1   
   118  115  126 1   
   119  116  117 2   
   120  116  134 1   
   121  118  119 1   
   122  118  127 1   
   123  118  128 1   
   124  119  120 ar  
   125  119  121 ar  
   126  120  122 ar  
   127  120  129 1   
   128  121  123 ar  
   129  121  130 1   
   130  122  124 ar  
   131  122  131 1   
   132  123  124 ar  
   133  123  132 1   
   134  124  133 1   
   135  134  135 1   
   136  134  140 1   
   137  135  136 1   
   138  135  138 1   
   139  135  141 1   
   140  136  137 2   
   141  136  148 1   
   142  138  139 1   
   143  138  142 1   
   144  138  143 1   
   145  139  140 1   
   146  139  144 1   
   147  139  145 1   
   148  140  146 1   
   149  140  147 1   
   150  148  149 1   
   151  148  157 1   
   152  149  150 1   
   153  149  152 1   
   154  149  158 1   
   155  150  151 2   
   156  150  163 1   
   157  152  153 1   
   158  152  159 1   
   159  152  160 1   
   160  153  154 1   
   161  153  161 1   
   162  153  162 1   
   163  154  155 1   
   164  154  156 1   
   165  163  164 1   
   166  163  168 1   
   167  164  165 1   
   168  164  166 1   
   169  164  167 1   
   170  170  171 1   
   171  170  172 1   
   172  173  174 1   
   173  173  175 1   
@<TRIPOS>SUBSTRUCTURE
     1 MOL         1 TEMP              0 ****  ****    0 ROOT
