@<TRIPOS>MOLECULE
MOL
  186   183     1     0     0
SMALL
resp


@<TRIPOS>ATOM
      1 C1          3.9100   -3.3900    6.5160 c3        1 MOL     -0.304868
      2 C2          3.5040   -2.9850    5.0360 c         1 MOL      0.678784
      3 O1          3.0490   -1.8490    4.7710 o         1 MOL     -0.593895
      4 H1          3.4840   -2.6750    7.2180 hc        1 MOL      0.080003
      5 H2          3.5290   -4.3870    6.7380 hc        1 MOL      0.080003
      6 H3          4.9970   -3.3860    6.6100 hc        1 MOL      0.080003
      7 N1          3.9460   -3.8190    4.0180 n         1 MOL     -0.597685
      8 C3          4.0780   -3.4530    2.6360 c3        1 MOL      0.109172
      9 C4          3.7450   -4.6180    1.6940 c         1 MOL      0.326976
     10 O2          4.2730   -5.7230    1.9050 o         1 MOL     -0.586491
     11 C5          5.4880   -2.9270    2.3350 c3        1 MOL      0.031948
     12 C6          5.5970   -2.5760    0.8560 c         1 MOL      0.405360
     13 O3          4.6250   -2.0110    0.1800 o         1 MOL     -0.577563
     14 O4          6.6520   -2.9850    0.2550 o         1 MOL     -0.577563
     15 H4          4.2310   -4.7580    4.2370 hn        1 MOL      0.309755
     16 H5          3.3750   -2.6570    2.4340 h1        1 MOL      0.177764
     17 H6          6.2870   -3.5550    2.7260 hc        1 MOL     -0.002139
     18 H7          5.6510   -2.0730    3.0020 hc        1 MOL     -0.002139
     19 N2          3.0150   -4.4750    0.5900 n         1 MOL      0.277832
     20 C7          2.8360   -5.3780   -0.5240 c3        1 MOL     -0.132070
     21 C8          3.3750   -4.9320   -1.8850 c         1 MOL      0.503518
     22 O5          3.3590   -5.7650   -2.7760 o         1 MOL     -0.578731
     23 C9          1.3660   -5.7540   -0.6170 c3        1 MOL      0.243334
     24 C10         0.5140   -4.4620   -1.1430 c3        1 MOL     -0.045024
     25 C11         0.8920   -6.2740    0.7290 c3        1 MOL     -0.143770
     26 C12        -0.8590   -4.9050   -1.5450 c3        1 MOL     -0.235114
     27 H8          2.4220   -3.6600    0.5610 hn        1 MOL     -0.095033
     28 H9          3.3820   -6.3120   -0.3810 h1        1 MOL      0.046755
     29 H10         1.2960   -6.5680   -1.3330 hc        1 MOL     -0.035608
     30 H11         0.9190   -3.9170   -1.9860 hc        1 MOL      0.076154
     31 H12         0.3980   -3.7860   -0.2900 hc        1 MOL      0.076154
     32 H13        -0.0710   -6.7810    0.5940 hc        1 MOL      0.004086
     33 H14         1.6410   -6.9070    1.2050 hc        1 MOL      0.004086
     34 H15         0.7590   -5.4560    1.4340 hc        1 MOL      0.004086
     35 H16        -1.4960   -4.9810   -0.6670 hc        1 MOL      0.058510
     36 H17        -1.2850   -4.0820   -2.1160 hc        1 MOL      0.058510
     37 H18        -0.9250   -5.8930   -2.0080 hc        1 MOL      0.058510
     38 N3          3.7790   -3.6610   -2.1000 n         1 MOL     -0.342553
     39 C13         4.0450   -3.1030   -3.4330 c3        1 MOL      0.028878
     40 C14         5.2530   -2.1170   -3.5020 c         1 MOL      0.391855
     41 O6          5.6930   -1.7580   -4.5570 o         1 MOL     -0.535749
     42 C15         2.7410   -2.5990   -4.0030 c3        1 MOL     -0.249299
     43 C16         2.2540   -1.4220   -3.1040 c         1 MOL      0.774880
     44 O7          2.9740   -0.6570   -2.4790 o         1 MOL     -0.701702
     45 O8          0.9950   -1.2240   -3.1430 o         1 MOL     -0.701702
     46 H19         3.9060   -3.1000   -1.2680 hn        1 MOL      0.179566
     47 H20         4.3420   -3.9770   -4.0210 h1        1 MOL      0.083489
     48 H21         2.0160   -3.4120   -3.9940 hc        1 MOL      0.070360
     49 H22         2.9750   -2.1780   -4.9780 hc        1 MOL      0.070360
     50 N4          5.7860   -1.6670   -2.3590 n         1 MOL     -0.054795
     51 C17         7.0300   -0.8810   -2.4690 c3        1 MOL     -0.216544
     52 C18         6.7830    0.5530   -3.0100 c         1 MOL      0.486152
     53 O9          7.7770    1.1520   -3.4420 o         1 MOL     -0.592490
     54 H23         5.3170   -1.8040   -1.4690 hn        1 MOL      0.018325
     55 H24         7.7310   -1.4820   -3.0420 h1        1 MOL      0.105123
     56 H25         7.5440   -0.7540   -1.5140 h1        1 MOL      0.105123
     57 N5          5.5460    1.1320   -2.9720 n         1 MOL     -0.210606
     58 C19         5.3020    2.5650   -3.2090 c3        1 MOL     -0.058193
     59 C20         5.9540    3.5430   -2.1920 c         1 MOL      0.530132
     60 O10         6.0000    4.7070   -2.5160 o         1 MOL     -0.532491
     61 C21         3.8190    2.8290   -3.4810 c3        1 MOL     -0.219740
     62 C22         2.9650    2.6350   -2.2120 c         1 MOL      0.692610
     63 O11         3.4920    2.1510   -1.1590 o         1 MOL     -0.694102
     64 O12         1.7470    2.9960   -2.2180 o         1 MOL     -0.694102
     65 H26         4.7900    0.5440   -2.6550 hn        1 MOL      0.219244
     66 H27         5.8720    2.8500   -4.1040 h1        1 MOL      0.080338
     67 H28         3.5220    2.0470   -4.1800 hc        1 MOL      0.079171
     68 H29         3.6940    3.8530   -3.8390 hc        1 MOL      0.079171
     69 N6          6.3530    3.1170   -0.9470 n         1 MOL     -0.383832
     70 C23         6.6610    4.0380    0.1030 c3        1 MOL     -0.129997
     71 C24         5.5320    4.5520    0.9880 c         1 MOL      0.595392
     72 O13         5.7830    5.4330    1.7970 o         1 MOL     -0.600895
     73 H30         6.2670    2.1380   -0.7240 hn        1 MOL      0.274719
     74 H31         7.2000    4.8980   -0.2890 h1        1 MOL      0.072544
     75 H32         7.3250    3.5430    0.8260 h1        1 MOL      0.072544
     76 N7          4.2600    4.1110    0.8170 n         1 MOL     -0.370911
     77 C25         3.0720    4.6160    1.5270 c3        1 MOL      0.011572
     78 C26         2.0400    3.4140    1.7090 c         1 MOL      0.514183
     79 O14         2.4030    2.2640    1.4600 o         1 MOL     -0.621091
     80 C27         2.4360    5.8450    0.9500 c3        1 MOL     -0.208002
     81 C28         1.8210    5.6770   -0.3940 c3        1 MOL     -0.089081
     82 C29         1.4160    7.0320   -0.9670 c         1 MOL      0.693012
     83 N8          0.4810    7.1160   -1.8660 n         1 MOL     -0.826819
     84 O15         1.8740    8.0480   -0.5610 o         1 MOL     -0.594871
     85 H33         4.0160    3.4840    0.0690 hn        1 MOL      0.316746
     86 H34         3.4300    4.8520    2.5290 h1        1 MOL      0.049872
     87 H35         3.1970    6.6080    0.8200 hc        1 MOL      0.084741
     88 H36         1.6700    6.2970    1.5750 hc        1 MOL      0.084741
     89 H37         0.9110    5.0740   -0.3150 hc        1 MOL      0.065508
     90 H38         2.4250    5.0550   -1.0580 hc        1 MOL      0.065508
     91 H39         0.0420    6.2500   -2.1460 hn        1 MOL      0.365056
     92 H40         0.3550    8.0180   -2.2990 hn        1 MOL      0.365056
     93 N9          0.7960    3.7010    2.2330 n         1 MOL     -0.335416
     94 C30        -0.2720    2.7910    2.6740 c3        1 MOL      0.072659
     95 C31        -1.6010    3.3020    2.1390 c         1 MOL      0.440093
     96 O16        -1.7430    4.5660    2.0810 o         1 MOL     -0.547667
     97 C32        -0.2010    2.6490    4.1890 c3        1 MOL      0.333475
     98 C33        -1.3070    1.7340    4.7560 c3        1 MOL     -0.465114
     99 C34         1.0920    2.0060    4.6710 c3        1 MOL     -0.465114
    100 H41         0.6790    4.6400    2.5780 hn        1 MOL      0.213573
    101 H42        -0.1470    1.7440    2.3760 h1        1 MOL      0.107701
    102 H43        -0.3610    3.6540    4.5800 hc        1 MOL     -0.050582
    103 H44        -1.1020    1.8320    5.8250 hc        1 MOL      0.111783
    104 H45        -2.2990    2.1170    4.5400 hc        1 MOL      0.111783
    105 H46        -1.1290    0.6980    4.4640 hc        1 MOL      0.111783
    106 H47         0.9760    1.7080    5.7060 hc        1 MOL      0.111783
    107 H48         1.4040    1.1470    4.0750 hc        1 MOL      0.111783
    108 H49         1.8630    2.7820    4.6620 hc        1 MOL      0.111783
    109 N10        -2.5460    2.4360    1.7130 n         1 MOL     -0.276816
    110 C35        -3.8050    2.8900    1.1240 c3        1 MOL      0.086802
    111 C36        -4.9150    1.8210    1.4990 c         1 MOL      0.385659
    112 O17        -4.6120    0.7440    2.0230 o         1 MOL     -0.384761
    113 C37        -3.7810    3.0020   -0.4030 c3        1 MOL     -0.352680
    114 C38        -3.9140    1.7940   -1.2390 c         1 MOL      0.676079
    115 N11        -2.8130    1.1850   -1.5880 n         1 MOL     -0.714937
    116 O18        -5.0170    1.3100   -1.4860 o         1 MOL     -0.560918
    117 H50        -2.3950    1.4640    1.9260 hn        1 MOL      0.092400
    118 H51        -4.0960    3.8400    1.5660 h1        1 MOL      0.073048
    119 H52        -2.9020    3.6070   -0.6550 hc        1 MOL      0.109717
    120 H53        -4.5570    3.6490   -0.8040 hc        1 MOL      0.109717
    121 H54        -1.9560    1.5950   -1.2600 hn        1 MOL      0.390879
    122 H55        -2.9100    0.1900   -1.7590 hn        1 MOL      0.390879
    123 N12        -6.1470    2.1220    1.3010 n         1 MOL     -0.402534
    124 C39        -7.2550    1.3070    1.7590 c3        1 MOL      0.250614
    125 C40        -7.1910   -0.1680    1.2650 c         1 MOL      0.365659
    126 O19        -7.5010   -1.0710    2.0840 o         1 MOL     -0.581421
    127 C41        -8.6010    1.9960    1.4140 c3        1 MOL     -0.306928
    128 C42        -9.0300    1.8570   -0.0080 ca        1 MOL      0.143604
    129 C43        -9.6430    0.6830   -0.5320 ca        1 MOL     -0.255893
    130 C44        -8.7610    2.9510   -0.8870 ca        1 MOL     -0.255893
    131 C45       -10.0140    0.6360   -1.8730 ca        1 MOL     -0.192587
    132 C46        -9.2000    2.8240   -2.2160 ca        1 MOL     -0.192587
    133 C47        -9.7970    1.6740   -2.7690 ca        1 MOL      0.274120
    134 O20       -10.0560    1.5950   -4.1050 oh        1 MOL     -0.490976
    135 H56        -6.2950    3.0900    1.0570 hn        1 MOL      0.261263
    136 H57        -7.2680    1.2880    2.8400 h1        1 MOL      0.024941
    137 H58        -8.5640    3.0280    1.7560 hc        1 MOL      0.090692
    138 H59        -9.3360    1.4510    1.9990 hc        1 MOL      0.090692
    139 H60        -9.6980   -0.2060    0.0830 ha        1 MOL      0.156370
    140 H61        -8.2560    3.8510   -0.5670 ha        1 MOL      0.156370
    141 H62       -10.4580   -0.2720   -2.2570 ha        1 MOL      0.129053
    142 H63        -9.0270    3.6950   -2.8290 ha        1 MOL      0.129053
    143 H64       -10.5800    0.8170   -4.3050 ho        1 MOL      0.396745
    144 N13        -6.6910   -0.4410    0.0720 n         1 MOL      0.005620
    145 C48        -6.5840   -1.8180   -0.5290 c3        1 MOL     -0.230065
    146 C49        -5.3780   -2.5290    0.0200 c         1 MOL      0.597277
    147 O21        -5.3360   -3.7300    0.0400 o         1 MOL     -0.549860
    148 C50        -6.7240   -1.7340   -2.0880 c3        1 MOL      0.020065
    149 C51        -6.6980   -3.1090   -2.7360 c3        1 MOL     -0.211820
    150 C52        -6.9580   -3.1130   -4.2810 c         1 MOL      0.671488
    151 O22        -6.0710   -2.5710   -4.9910 o         1 MOL     -0.732795
    152 O23        -8.0490   -3.5570   -4.7720 o         1 MOL     -0.732795
    153 H65        -6.4270    0.3530   -0.5090 hn        1 MOL      0.177995
    154 H66        -7.3940   -2.4110   -0.1050 h1        1 MOL      0.130117
    155 H67        -5.8590   -1.1600   -2.4240 hc        1 MOL      0.058533
    156 H68        -7.6430   -1.2410   -2.4100 hc        1 MOL      0.058533
    157 H69        -7.4560   -3.7270   -2.2750 hc        1 MOL      0.019192
    158 H70        -5.7340   -3.5820   -2.5340 hc        1 MOL      0.019192
    159 N14        -4.4850   -1.8450    0.7240 n         1 MOL     -0.290461
    160 C53        -3.2960   -2.3410    1.3580 c3        1 MOL     -0.014260
    161 C54        -3.5290   -2.6080    2.8520 c         1 MOL      0.519708
    162 O24        -3.1330   -3.6380    3.3030 o         1 MOL     -0.559477
    163 C55        -2.1530   -1.3980    1.0610 c3        1 MOL     -0.163196
    164 C56        -0.8050   -1.9220    1.6060 c3        1 MOL      0.048330
    165 C57         0.4840   -1.3700    0.9670 c         1 MOL      0.903573
    166 O25         0.5040   -0.2480    0.3960 o         1 MOL     -0.870407
    167 O26         1.5180   -2.0240    0.9680 o         1 MOL     -0.870407
    168 H71        -4.6810   -0.8550    0.7890 hn        1 MOL      0.057861
    169 H72        -3.0620   -3.2810    0.8520 h1        1 MOL      0.109071
    170 H73        -2.3690   -0.4150    1.4580 hc        1 MOL      0.096562
    171 H74        -1.9590   -1.2800    0.0020 hc        1 MOL      0.096562
    172 H75        -0.7120   -2.9870    1.4030 hc        1 MOL     -0.024353
    173 H76        -0.8360   -1.6370    2.6560 hc        1 MOL     -0.024353
    174 N15        -4.3280   -1.7620    3.5000 n         1 MOL     -0.190585
    175 C58        -4.8470   -1.9200    4.9000 c3        1 MOL     -0.105698
    176 H77        -4.4670   -1.1080    5.5210 h1        1 MOL      0.058133
    177 H78        -5.9370   -1.8900    4.8900 h1        1 MOL      0.058133
    178 H79        -4.5130   -2.8740    5.3070 h1        1 MOL      0.058133
    179 H80        -4.6160   -0.9670    2.9500 hn        1 MOL      0.143415
    180 Ca1         2.9920    0.0620    0.0610 Ca        1 MOL      1.755023
    181 O27         3.4180   -0.0130    2.8110 oh        1 MOL     -0.817219
    182 H81         3.2400   -0.6310    3.5200 ho        1 MOL      0.393177
    183 H82         4.2070    0.4480    3.0880 ho        1 MOL      0.393177
    184 O28         5.7740    0.5660    0.3110 oh        1 MOL     -0.817219
    185 H83         6.4460   -0.0270   -0.0160 ho        1 MOL      0.393177
    186 H84         6.0640    0.7790    1.2070 ho        1 MOL      0.393177
@<TRIPOS>BOND
     1    1    2 1   
     2    1    4 1   
     3    1    5 1   
     4    1    6 1   
     5    2    3 2   
     6    2    7 1   
     7    7    8 1   
     8    7   15 1   
     9    8    9 1   
    10    8   11 1   
    11    8   16 1   
    12    9   10 2   
    13    9   19 1   
    14   11   12 1   
    15   11   17 1   
    16   11   18 1   
    17   12   13 1   
    18   12   14 1   
    19   19   20 1   
    20   19   27 1   
    21   20   21 1   
    22   20   23 1   
    23   20   28 1   
    24   21   22 2   
    25   21   38 1   
    26   23   24 1   
    27   23   25 1   
    28   23   29 1   
    29   24   26 1   
    30   24   30 1   
    31   24   31 1   
    32   25   32 1   
    33   25   33 1   
    34   25   34 1   
    35   26   35 1   
    36   26   36 1   
    37   26   37 1   
    38   38   39 1   
    39   38   46 1   
    40   39   40 1   
    41   39   42 1   
    42   39   47 1   
    43   40   41 2   
    44   40   50 1   
    45   42   43 1   
    46   42   48 1   
    47   42   49 1   
    48   43   44 1   
    49   43   45 1   
    50   50   51 1   
    51   50   54 1   
    52   51   52 1   
    53   51   55 1   
    54   51   56 1   
    55   52   53 2   
    56   52   57 1   
    57   57   58 1   
    58   57   65 1   
    59   58   59 1   
    60   58   61 1   
    61   58   66 1   
    62   59   60 2   
    63   59   69 1   
    64   61   62 1   
    65   61   67 1   
    66   61   68 1   
    67   62   63 1   
    68   62   64 1   
    69   69   70 1   
    70   69   73 1   
    71   70   71 1   
    72   70   74 1   
    73   70   75 1   
    74   71   72 2   
    75   71   76 1   
    76   76   77 1   
    77   76   85 1   
    78   77   78 1   
    79   77   80 1   
    80   77   86 1   
    81   78   79 2   
    82   78   93 1   
    83   80   81 1   
    84   80   87 1   
    85   80   88 1   
    86   81   82 1   
    87   81   89 1   
    88   81   90 1   
    89   82   83 1   
    90   82   84 2   
    91   83   91 1   
    92   83   92 1   
    93   93   94 1   
    94   93  100 1   
    95   94   95 1   
    96   94   97 1   
    97   94  101 1   
    98   95   96 2   
    99   95  109 1   
   100   97   98 1   
   101   97   99 1   
   102   97  102 1   
   103   98  103 1   
   104   98  104 1   
   105   98  105 1   
   106   99  106 1   
   107   99  107 1   
   108   99  108 1   
   109  109  110 1   
   110  109  117 1   
   111  110  111 1   
   112  110  113 1   
   113  110  118 1   
   114  111  112 2   
   115  111  123 1   
   116  113  114 1   
   117  113  119 1   
   118  113  120 1   
   119  114  115 1   
   120  114  116 2   
   121  115  121 1   
   122  115  122 1   
   123  123  124 1   
   124  123  135 1   
   125  124  125 1   
   126  124  127 1   
   127  124  136 1   
   128  125  126 2   
   129  125  144 1   
   130  127  128 1   
   131  127  137 1   
   132  127  138 1   
   133  128  129 ar  
   134  128  130 ar  
   135  129  131 ar  
   136  129  139 1   
   137  130  132 ar  
   138  130  140 1   
   139  131  133 ar  
   140  131  141 1   
   141  132  133 ar  
   142  132  142 1   
   143  133  134 1   
   144  134  143 1   
   145  144  145 1   
   146  144  153 1   
   147  145  146 1   
   148  145  148 1   
   149  145  154 1   
   150  146  147 2   
   151  146  159 1   
   152  148  149 1   
   153  148  155 1   
   154  148  156 1   
   155  149  150 1   
   156  149  157 1   
   157  149  158 1   
   158  150  151 1   
   159  150  152 1   
   160  159  160 1   
   161  159  168 1   
   162  160  161 1   
   163  160  163 1   
   164  160  169 1   
   165  161  162 2   
   166  161  174 1   
   167  163  164 1   
   168  163  170 1   
   169  163  171 1   
   170  164  165 1   
   171  164  172 1   
   172  164  173 1   
   173  165  166 1   
   174  165  167 1   
   175  174  175 1   
   176  174  179 1   
   177  175  176 1   
   178  175  177 1   
   179  175  178 1   
   180  181  182 1   
   181  181  183 1   
   182  184  185 1   
   183  184  186 1   
@<TRIPOS>SUBSTRUCTURE
     1 MOL         1 TEMP              0 ****  ****    0 ROOT
