@<TRIPOS>MOLECULE
MOL
  179   176     1     0     0
SMALL
resp


@<TRIPOS>ATOM
      1 C1         -0.1680    5.0780    4.6410 c3        1 MOL     -0.339537
      2 C2         -0.2370    4.4530    3.2710 c         1 MOL      0.662573
      3 O1          0.4660    4.7320    2.3510 o         1 MOL     -0.594638
      4 H1          0.1010    4.3180    5.3730 hc        1 MOL      0.080520
      5 H2          0.5840    5.8670    4.6430 hc        1 MOL      0.080520
      6 H3         -1.1390    5.5020    4.8970 hc        1 MOL      0.080520
      7 N1         -1.1910    3.5490    3.1190 n         1 MOL     -0.474695
      8 C3         -1.7270    2.7700    1.9020 c3        1 MOL      0.034816
      9 C4         -2.5790    3.7120    1.0380 c         1 MOL      0.400875
     10 O2         -3.8280    3.5520    1.0270 o         1 MOL     -0.435915
     11 C5         -2.5000    1.6510    2.5160 c3        1 MOL     -0.067247
     12 C6         -3.1000    0.7180    1.4220 c         1 MOL      0.504675
     13 O3         -2.5580    0.6490    0.3410 o         1 MOL     -0.631672
     14 O4         -4.1990    0.1590    1.6740 o         1 MOL     -0.631672
     15 H4         -1.7250    3.3710    3.9530 hn        1 MOL      0.266612
     16 H5         -0.9090    2.3780    1.3090 h1        1 MOL      0.104541
     17 H6         -3.2060    1.9100    3.3010 hc        1 MOL      0.036584
     18 H7         -1.7770    1.0530    3.0840 hc        1 MOL      0.036584
     19 N2         -1.9460    4.6830    0.3260 n         1 MOL     -0.261153
     20 C7         -2.6050    5.8420   -0.3040 c3        1 MOL     -0.166435
     21 C8         -3.8090    5.3890   -1.1280 c         1 MOL      0.461217
     22 O5         -4.8170    6.0260   -1.1710 o         1 MOL     -0.515619
     23 C9         -1.6780    6.6920   -1.1280 c3        1 MOL      0.026229
     24 C10        -0.6000    7.4770   -0.3440 c3        1 MOL     -0.109130
     25 C11        -1.1720    8.1580    0.8870 c3        1 MOL     -0.057792
     26 C12        -0.2260    9.1610    1.5080 c3        1 MOL      0.056987
     27 N3         -0.7540    9.7200    2.7750 n4        1 MOL     -0.306059
     28 H8         -0.9400    4.6850    0.2890 hn        1 MOL      0.300966
     29 H9         -3.0500    6.4320    0.5010 h1        1 MOL      0.094469
     30 H10        -2.2230    7.3850   -1.7620 hc        1 MOL      0.046126
     31 H11        -1.1890    6.0420   -1.8620 hc        1 MOL      0.046126
     32 H12        -0.2360    8.2240   -1.0500 hc        1 MOL      0.059987
     33 H13         0.2020    6.7670   -0.1190 hc        1 MOL      0.059987
     34 H14        -1.4480    7.4010    1.6280 hc        1 MOL      0.040242
     35 H15        -2.1500    8.6390    0.7670 hc        1 MOL      0.040242
     36 H16        -0.1110   10.0170    0.8410 hx        1 MOL      0.079934
     37 H17         0.7610    8.7320    1.6730 hx        1 MOL      0.079934
     38 H18        -1.6170   10.2210    2.6060 hn        1 MOL      0.312595
     39 H19        -1.1220    9.0220    3.4100 hn        1 MOL      0.312595
     40 H20        -0.0570   10.3320    3.1660 hn        1 MOL      0.312595
     41 N4         -3.6110    4.2490   -1.8200 n         1 MOL     -0.338797
     42 C13        -4.5550    3.5960   -2.7270 c3        1 MOL      0.132797
     43 C14        -5.7310    2.9200   -2.0020 c         1 MOL      0.440685
     44 O6         -6.8440    2.9250   -2.4370 o         1 MOL     -0.547887
     45 C15        -3.8820    2.5800   -3.7030 c3        1 MOL     -0.438670
     46 C16        -2.8870    1.6530   -3.0310 c         1 MOL      0.823957
     47 O7         -1.8990    2.1200   -2.4160 o         1 MOL     -0.761577
     48 O8         -3.0080    0.4070   -3.0710 o         1 MOL     -0.761577
     49 H21        -2.7830    3.6800   -1.7440 hn        1 MOL      0.253937
     50 H22        -5.0100    4.4150   -3.2910 h1        1 MOL      0.060367
     51 H23        -3.2660    3.2320   -4.3310 hc        1 MOL      0.121619
     52 H24        -4.6200    1.9830   -4.2280 hc        1 MOL      0.121619
     53 N5         -5.4800    2.2850   -0.8390 n         1 MOL     -0.040777
     54 C17        -6.5280    1.6000   -0.0870 c3        1 MOL     -0.184494
     55 C18        -6.8090    0.1930   -0.5000 c         1 MOL      0.541984
     56 O9         -7.8970   -0.3430   -0.2610 o         1 MOL     -0.585979
     57 H25        -4.5470    2.4150   -0.4780 hn        1 MOL      0.101930
     58 H26        -7.4690    2.1520   -0.1250 h1        1 MOL      0.101258
     59 H27        -6.1650    1.6260    0.9390 h1        1 MOL      0.101258
     60 N6         -5.8430   -0.5370   -1.0730 n         1 MOL     -0.191613
     61 C19        -5.8850   -1.9600   -1.4810 c3        1 MOL     -0.120869
     62 C20        -5.5990   -2.9750   -0.2860 c         1 MOL      0.286995
     63 O10        -5.7960   -4.1450   -0.4990 o         1 MOL     -0.440574
     64 C21        -4.9860   -2.1580   -2.5680 c3        1 MOL     -0.046877
     65 C22        -3.6010   -2.4630   -2.1450 c         1 MOL      0.341887
     66 N7         -2.9670   -3.3930   -2.8030 n         1 MOL     -0.713215
     67 O11        -3.0530   -1.8950   -1.1980 o         1 MOL     -0.282872
     68 H28        -5.0080    0.0260   -1.1170 hn        1 MOL      0.089244
     69 H29        -6.9040   -2.1920   -1.8030 h1        1 MOL      0.139774
     70 H30        -5.1210   -1.3250   -3.2490 hc        1 MOL      0.068654
     71 H31        -5.3350   -3.0000   -3.1760 hc        1 MOL      0.068654
     72 H32        -3.4520   -3.9680   -3.4790 hn        1 MOL      0.356600
     73 H33        -2.0320   -3.6190   -2.4990 hn        1 MOL      0.356600
     74 N8         -5.3140   -2.5000    0.9280 n         1 MOL      0.003930
     75 C23        -5.1010   -3.2970    2.1210 c3        1 MOL     -0.572249
     76 C24        -3.7920   -3.9050    2.3170 c         1 MOL      0.794063
     77 O12        -3.7100   -4.8020    3.1750 o         1 MOL     -0.567332
     78 H34        -4.9770   -1.5510    1.0250 hn        1 MOL      0.193483
     79 H35        -5.7820   -4.1500    2.1150 h1        1 MOL      0.195401
     80 H36        -5.4560   -2.6710    2.9410 h1        1 MOL      0.195401
     81 N9         -2.7420   -3.4630    1.5460 n         1 MOL     -0.575234
     82 C25        -1.3490   -3.9480    1.6140 c3        1 MOL      0.063922
     83 C26        -0.3320   -2.7990    1.3990 c         1 MOL      0.666046
     84 O13        -0.5820   -1.7710    0.7260 o         1 MOL     -0.673875
     85 C27        -1.1450   -5.0590    0.5580 c3        1 MOL      0.013218
     86 C28        -2.2570   -6.1830    0.5560 ca        1 MOL     -0.039074
     87 C29        -3.2930   -6.2240   -0.3190 ca        1 MOL     -0.135687
     88 C30        -2.2920   -7.1310    1.6290 ca        1 MOL     -0.135687
     89 C31        -4.2070   -7.2560   -0.3760 ca        1 MOL     -0.261827
     90 C32        -3.4010   -8.1020    1.7990 ca        1 MOL     -0.261827
     91 C33        -4.2850   -8.1490    0.7700 ca        1 MOL      0.340524
     92 O14        -5.4000   -8.9740    0.8100 oh        1 MOL     -0.504015
     93 H37        -2.9390   -2.8180    0.7930 hn        1 MOL      0.365156
     94 H38        -1.2490   -4.2800    2.6450 h1        1 MOL      0.055040
     95 H39        -0.1640   -5.5100    0.6450 hc        1 MOL      0.004243
     96 H40        -1.1030   -4.6330   -0.4490 hc        1 MOL      0.004243
     97 H41        -3.2530   -5.5070   -1.1290 ha        1 MOL      0.117019
     98 H42        -1.5820   -7.0570    2.4360 ha        1 MOL      0.117019
     99 H43        -4.9470   -7.2830   -1.1630 ha        1 MOL      0.160472
    100 H44        -3.5020   -8.6870    2.7000 ha        1 MOL      0.160472
    101 H45        -5.4020   -9.4940    1.6110 ho        1 MOL      0.364592
    102 N10         0.8780   -3.0430    1.9160 n         1 MOL     -0.603461
    103 C34         2.0100   -2.1690    1.6410 c3        1 MOL      0.127957
    104 C35         3.1900   -2.9890    1.1240 c         1 MOL      0.533113
    105 O15         3.6650   -3.9420    1.7710 o         1 MOL     -0.530641
    106 C36         2.3030   -1.1900    2.8570 c3        1 MOL     -0.049019
    107 C37         1.1710   -0.1360    2.9300 c3        1 MOL     -0.066386
    108 C38         3.6490   -0.5030    2.7380 c3        1 MOL     -0.062495
    109 C39         1.3150    1.0550    3.9290 c3        1 MOL     -0.190992
    110 H46         1.0050   -3.8940    2.4270 hn        1 MOL      0.338897
    111 H47         1.7670   -1.4710    0.8460 h1        1 MOL      0.012263
    112 H48         2.3110   -1.8240    3.7440 hc        1 MOL      0.039402
    113 H49         0.2240   -0.6010    3.2070 hc        1 MOL      0.067234
    114 H50         0.9410    0.2220    1.9270 hc        1 MOL      0.067234
    115 H51         4.4150   -1.2720    2.5850 hc        1 MOL      0.023914
    116 H52         3.6600    0.1570    1.8700 hc        1 MOL      0.023914
    117 H53         4.0160    0.1220    3.5520 hc        1 MOL      0.023914
    118 H54         1.6290    0.7400    4.9180 hc        1 MOL      0.055648
    119 H55         2.1400    1.6940    3.6240 hc        1 MOL      0.055648
    120 H56         0.3770    1.6090    4.0060 hc        1 MOL      0.055648
    121 N11         3.6450   -2.7080   -0.1140 n         1 MOL     -0.421603
    122 C40         4.9230   -3.2010   -0.5840 c3        1 MOL      0.042458
    123 C41         6.1150   -2.5120    0.0810 c         1 MOL      0.434405
    124 O16         5.9520   -1.4310    0.6780 o         1 MOL     -0.373152
    125 C42         5.1240   -2.9420   -2.0850 c3        1 MOL      0.040494
    126 O17         5.2960   -1.6030   -2.4630 oh        1 MOL     -0.451264
    127 H57         3.1110   -2.0070   -0.6110 hn        1 MOL      0.254897
    128 H58         5.1390   -4.2660   -0.4600 h1        1 MOL      0.069305
    129 H59         4.3120   -3.4280   -2.6400 h1        1 MOL      0.042878
    130 H60         6.0500   -3.4300   -2.3840 h1        1 MOL      0.042878
    131 H61         4.4230   -1.3450   -2.7750 ho        1 MOL      0.404564
    132 N12         7.3030   -3.0940    0.0170 n         1 MOL     -0.427058
    133 C43         8.5510   -2.4800    0.5640 c3        1 MOL      0.119465
    134 C44         8.9960   -1.1860   -0.3100 c         1 MOL      0.599093
    135 O18         9.5640   -0.3430    0.3150 o         1 MOL     -0.530391
    136 C45         9.6250   -3.6020    0.5630 c3        1 MOL     -0.313835
    137 H62         7.2970   -4.0280   -0.3710 hn        1 MOL      0.282709
    138 H63         8.3460   -2.0870    1.5660 h1        1 MOL      0.088821
    139 H64         9.9580   -3.5350   -0.4690 hc        1 MOL      0.095650
    140 H65        10.3840   -3.3930    1.3240 hc        1 MOL      0.095650
    141 H66         9.2050   -4.5800    0.7940 hc        1 MOL      0.095650
    142 N13         8.5170   -0.9480   -1.5580 n         1 MOL     -0.594608
    143 C46         8.7120    0.2930   -2.3300 c3        1 MOL      0.365686
    144 C47         7.6850    1.3640   -2.0080 c         1 MOL      0.211159
    145 O19         7.9690    2.6090   -2.0170 o         1 MOL     -0.484714
    146 C48         8.7270   -0.0860   -3.7870 c3        1 MOL     -0.224160
    147 H67         7.8000   -1.5420   -1.9360 hn        1 MOL      0.338077
    148 H68         9.6770    0.7490   -2.1220 h1        1 MOL      0.046774
    149 H69         7.7660   -0.5330   -4.0330 hc        1 MOL      0.052079
    150 H70         9.0200    0.7560   -4.4130 hc        1 MOL      0.052079
    151 H71         9.4480   -0.8990   -3.8830 hc        1 MOL      0.052079
    152 N14         6.4820    0.8810   -1.6820 n         1 MOL      0.074595
    153 C49         5.4580    1.7370   -1.0720 c3        1 MOL     -0.259482
    154 C50         5.8610    2.1880    0.3110 c         1 MOL      0.462681
    155 O20         5.6370    3.3870    0.6850 o         1 MOL     -0.550682
    156 C51         4.1090    1.0000   -1.0790 c3        1 MOL     -0.000405
    157 C52         2.9150    1.7270   -0.4000 c3        1 MOL     -0.142534
    158 C53         1.5730    1.0090   -0.6500 c         1 MOL      0.728120
    159 O21         0.5170    1.6330   -0.4310 o         1 MOL     -0.730799
    160 O22         1.5810   -0.0630   -1.3090 o         1 MOL     -0.730799
    161 H72         6.2830   -0.1070   -1.7570 hn        1 MOL     -0.114166
    162 H73         5.3110    2.6110   -1.7130 h1        1 MOL      0.142079
    163 H74         4.1950    0.0110   -0.6360 hc        1 MOL      0.031213
    164 H75         3.8560    0.6910   -2.0950 hc        1 MOL      0.031213
    165 H76         2.8200    2.7190   -0.8530 hc        1 MOL      0.071290
    166 H77         3.0870    1.8370    0.6730 hc        1 MOL      0.071290
    167 N15         6.4460    1.2990    1.1470 n         1 MOL     -0.043843
    168 C54         6.7710    1.6340    2.5880 c3        1 MOL     -0.166596
    169 H78         6.7560    0.7220    3.1840 h1        1 MOL      0.079150
    170 H79         7.7620    2.0850    2.6410 h1        1 MOL      0.079150
    171 H80         6.0300    2.3330    2.9750 h1        1 MOL      0.079150
    172 H81         6.6280    0.3700    0.8060 hn        1 MOL      0.084018
    173 Ca1        -1.0310   -0.2280   -1.4560 Ca        1 MOL      1.729977
    174 O23        -0.2880   -2.7110   -2.2960 oh        1 MOL     -0.818612
    175 H82        -0.1770   -2.8070   -3.2410 ho        1 MOL      0.403945
    176 H83         0.3370   -3.3320   -1.9170 ho        1 MOL      0.403945
    177 O24        -0.0300    0.0600   -4.2430 oh        1 MOL     -0.818612
    178 H84        -0.7240    0.5110   -4.7200 ho        1 MOL      0.403945
    179 H85         0.6410   -0.1160   -4.9070 ho        1 MOL      0.403945
@<TRIPOS>BOND
     1    1    2 1   
     2    1    4 1   
     3    1    5 1   
     4    1    6 1   
     5    2    3 2   
     6    2    7 1   
     7    7    8 1   
     8    7   15 1   
     9    8    9 1   
    10    8   11 1   
    11    8   16 1   
    12    9   10 2   
    13    9   19 1   
    14   11   12 1   
    15   11   17 1   
    16   11   18 1   
    17   12   13 1   
    18   12   14 1   
    19   19   20 1   
    20   19   28 1   
    21   20   21 1   
    22   20   23 1   
    23   20   29 1   
    24   21   22 2   
    25   21   41 1   
    26   23   24 1   
    27   23   30 1   
    28   23   31 1   
    29   24   25 1   
    30   24   32 1   
    31   24   33 1   
    32   25   26 1   
    33   25   34 1   
    34   25   35 1   
    35   26   27 1   
    36   26   36 1   
    37   26   37 1   
    38   27   38 1   
    39   27   39 1   
    40   27   40 1   
    41   41   42 1   
    42   41   49 1   
    43   42   43 1   
    44   42   45 1   
    45   42   50 1   
    46   43   44 2   
    47   43   53 1   
    48   45   46 1   
    49   45   51 1   
    50   45   52 1   
    51   46   47 1   
    52   46   48 1   
    53   53   54 1   
    54   53   57 1   
    55   54   55 1   
    56   54   58 1   
    57   54   59 1   
    58   55   56 2   
    59   55   60 1   
    60   60   61 1   
    61   60   68 1   
    62   61   62 1   
    63   61   64 1   
    64   61   69 1   
    65   62   63 2   
    66   62   74 1   
    67   64   65 1   
    68   64   70 1   
    69   64   71 1   
    70   65   66 1   
    71   65   67 2   
    72   66   72 1   
    73   66   73 1   
    74   74   75 1   
    75   74   78 1   
    76   75   76 1   
    77   75   79 1   
    78   75   80 1   
    79   76   77 2   
    80   76   81 1   
    81   81   82 1   
    82   81   93 1   
    83   82   83 1   
    84   82   85 1   
    85   82   94 1   
    86   83   84 2   
    87   83  102 1   
    88   85   86 1   
    89   85   95 1   
    90   85   96 1   
    91   86   87 ar  
    92   86   88 ar  
    93   87   89 ar  
    94   87   97 1   
    95   88   90 ar  
    96   88   98 1   
    97   89   91 ar  
    98   89   99 1   
    99   90   91 ar  
   100   90  100 1   
   101   91   92 1   
   102   92  101 1   
   103  102  103 1   
   104  102  110 1   
   105  103  104 1   
   106  103  106 1   
   107  103  111 1   
   108  104  105 2   
   109  104  121 1   
   110  106  107 1   
   111  106  108 1   
   112  106  112 1   
   113  107  109 1   
   114  107  113 1   
   115  107  114 1   
   116  108  115 1   
   117  108  116 1   
   118  108  117 1   
   119  109  118 1   
   120  109  119 1   
   121  109  120 1   
   122  121  122 1   
   123  121  127 1   
   124  122  123 1   
   125  122  125 1   
   126  122  128 1   
   127  123  124 2   
   128  123  132 1   
   129  125  126 1   
   130  125  129 1   
   131  125  130 1   
   132  126  131 1   
   133  132  133 1   
   134  132  137 1   
   135  133  134 1   
   136  133  136 1   
   137  133  138 1   
   138  134  135 2   
   139  134  142 1   
   140  136  139 1   
   141  136  140 1   
   142  136  141 1   
   143  142  143 1   
   144  142  147 1   
   145  143  144 1   
   146  143  146 1   
   147  143  148 1   
   148  144  145 2   
   149  144  152 1   
   150  146  149 1   
   151  146  150 1   
   152  146  151 1   
   153  152  153 1   
   154  152  161 1   
   155  153  154 1   
   156  153  156 1   
   157  153  162 1   
   158  154  155 2   
   159  154  167 1   
   160  156  157 1   
   161  156  163 1   
   162  156  164 1   
   163  157  158 1   
   164  157  165 1   
   165  157  166 1   
   166  158  159 1   
   167  158  160 1   
   168  167  168 1   
   169  167  172 1   
   170  168  169 1   
   171  168  170 1   
   172  168  171 1   
   173  174  175 1   
   174  174  176 1   
   175  177  178 1   
   176  177  179 1   
@<TRIPOS>SUBSTRUCTURE
     1 MOL         1 TEMP              0 ****  ****    0 ROOT
