@<TRIPOS>MOLECULE
MOL
  182   178     1     0     0
SMALL
resp


@<TRIPOS>ATOM
      1 C1          1.1620    2.2770    6.5240 c3        1 MOL     -0.224721
      2 C2          0.9730    1.8990    5.0280 c         1 MOL      0.780588
      3 O1          1.9160    1.7550    4.2650 o         1 MOL     -0.616925
      4 H1          2.2260    2.3240    6.7550 hc        1 MOL      0.049015
      5 H2          0.7070    3.2500    6.7130 hc        1 MOL      0.049015
      6 H3          0.6870    1.5250    7.1530 hc        1 MOL      0.049015
      7 N1         -0.2990    1.7730    4.6230 n         1 MOL     -0.512595
      8 C3         -0.5950    1.8660    3.1740 c3        1 MOL     -0.071351
      9 C4         -0.1410    3.2160    2.6040 c         1 MOL      0.438052
     10 O2         -0.5340    4.2650    3.2030 o         1 MOL     -0.525033
     11 C5         -2.0660    1.7270    3.0700 c3        1 MOL     -0.007628
     12 C6         -2.6980    1.5700    1.6810 c         1 MOL      0.866184
     13 O3         -1.9960    1.6280    0.6070 o         1 MOL     -0.792176
     14 O4         -3.8670    1.2000    1.6660 o         1 MOL     -0.792176
     15 H4         -1.0660    1.9100    5.2530 hn        1 MOL      0.296338
     16 H5         -0.1250    1.0030    2.7150 h1        1 MOL      0.115731
     17 H6         -2.5140    2.6010    3.5410 hc        1 MOL      0.013039
     18 H7         -2.4360    0.8870    3.6570 hc        1 MOL      0.013039
     19 N2          0.7000    3.2260    1.5600 n         1 MOL     -0.085057
     20 C7          1.2980    4.4560    0.9330 c3        1 MOL     -0.181024
     21 C8          0.2710    5.4520    0.3690 c         1 MOL      0.520707
     22 O5          0.4190    6.6200    0.5950 o         1 MOL     -0.555981
     23 C9          2.2570    4.2040   -0.2820 c3        1 MOL     -0.007014
     24 C10         3.3210    5.3210   -0.4930 c3        1 MOL      0.000144
     25 C11         4.4430    4.9690   -1.5200 c3        1 MOL     -0.080334
     26 C12         5.4740    6.1110   -1.5840 c3        1 MOL      0.094583
     27 N3          6.6630    5.8210   -2.4700 n4        1 MOL     -0.396685
     28 H8          0.9190    2.3540    1.0990 hn        1 MOL      0.065280
     29 H9          1.9360    4.9250    1.6790 h1        1 MOL      0.127384
     30 H10         1.7080    3.9840   -1.1990 hc        1 MOL      0.018244
     31 H11         2.8520    3.3290   -0.0280 hc        1 MOL      0.018244
     32 H12         3.6380    5.6900    0.4850 hc        1 MOL      0.026780
     33 H13         2.7490    6.2030   -0.7940 hc        1 MOL      0.026780
     34 H14         4.0370    4.7480   -2.5010 hc        1 MOL      0.054395
     35 H15         4.9340    4.0630   -1.1790 hc        1 MOL      0.054395
     36 H16         5.8470    6.3950   -0.6000 hx        1 MOL      0.074283
     37 H17         4.9210    6.9820   -1.9400 hx        1 MOL      0.074283
     38 H18         6.4330    5.9980   -3.4370 hn        1 MOL      0.333217
     39 H19         7.4070    6.4830   -2.2680 hn        1 MOL      0.333217
     40 H20         7.2050    4.9740   -2.3820 hn        1 MOL      0.333217
     41 N4         -0.6880    4.8900   -0.3370 n         1 MOL     -0.260437
     42 C13        -1.7080    5.6860   -1.0510 c3        1 MOL      0.135783
     43 C14        -3.1240    5.3370   -0.5850 c         1 MOL      0.416410
     44 O6         -4.0230    6.0710   -1.0070 o         1 MOL     -0.533722
     45 C15        -1.5790    5.3690   -2.5210 c3        1 MOL     -0.186799
     46 C16        -1.7250    3.8850   -2.9600 c         1 MOL      0.833987
     47 O7         -1.8270    2.9800   -2.1670 o         1 MOL     -0.740321
     48 O8         -1.7670    3.6870   -4.2010 o         1 MOL     -0.740321
     49 H21        -0.7670    3.8870   -0.2630 hn        1 MOL      0.152582
     50 H22        -1.5930    6.7470   -0.8480 h1        1 MOL      0.077584
     51 H23        -0.5630    5.6990   -2.7620 hc        1 MOL      0.028115
     52 H24        -2.1960    6.0270   -3.1270 hc        1 MOL      0.028115
     53 N5         -3.3780    4.2910    0.2430 n         1 MOL     -0.204338
     54 C17        -4.6490    4.2960    1.0020 c3        1 MOL     -0.066132
     55 C18        -5.7020    3.3790    0.3190 c         1 MOL      0.505814
     56 O9         -6.8900    3.5280    0.6200 o         1 MOL     -0.560449
     57 H25        -2.6920    3.5780    0.4270 hn        1 MOL      0.093427
     58 H26        -5.0600    5.2920    1.1950 h1        1 MOL      0.083283
     59 H27        -4.4240    3.8560    1.9710 h1        1 MOL      0.083283
     60 N6         -5.3060    2.4950   -0.5870 n         1 MOL     -0.270007
     61 C19        -6.2180    1.5810   -1.3210 c3        1 MOL     -0.011858
     62 C20        -6.7200    0.4400   -0.3940 c         1 MOL      0.389483
     63 O10        -7.6350   -0.3090   -0.7970 o         1 MOL     -0.538481
     64 C21        -5.4790    1.0500   -2.6070 c3        1 MOL     -0.397434
     65 C22        -4.6450   -0.1810   -2.3260 c         1 MOL      0.459164
     66 N7         -4.7780   -1.2290   -3.1350 n         1 MOL     -0.615099
     67 O11        -3.7910   -0.2030   -1.4580 o         1 MOL     -0.430516
     68 H28        -4.3320    2.4140   -0.8330 hn        1 MOL      0.226330
     69 H29        -7.1330    2.1130   -1.5840 h1        1 MOL      0.131508
     70 H30        -4.8920    1.8200   -3.1120 hc        1 MOL      0.168572
     71 H31        -6.2290    0.7380   -3.3380 hc        1 MOL      0.168572
     72 H32        -5.3420   -1.2220   -3.9730 hn        1 MOL      0.333701
     73 H33        -4.0790   -1.9510   -3.0750 hn        1 MOL      0.333701
     74 N8         -6.1940    0.1420    0.8110 n         1 MOL     -0.192213
     75 C23        -6.5960   -1.0570    1.5790 c3        1 MOL     -0.312760
     76 C24        -5.5800   -2.2070    1.3880 c         1 MOL      0.655181
     77 O12        -5.7550   -3.1760    2.1170 o         1 MOL     -0.592243
     78 H34        -5.4180    0.7020    1.1080 hn        1 MOL      0.290159
     79 H35        -7.5810   -1.4230    1.3120 h1        1 MOL      0.150083
     80 H36        -6.6230   -0.7680    2.6280 h1        1 MOL      0.150083
     81 N9         -4.5120   -2.0680    0.5940 n         1 MOL     -0.401591
     82 C25        -3.4430   -3.1050    0.5390 c3        1 MOL      0.061859
     83 C26        -2.0270   -2.4690    0.6390 c         1 MOL      0.494887
     84 O13        -1.8830   -1.3680    0.1610 o         1 MOL     -0.644321
     85 C27        -3.5840   -3.8920   -0.8260 c3        1 MOL      0.231155
     86 C28        -4.6910   -4.8980   -0.7900 ca        1 MOL     -0.178612
     87 C29        -5.9970   -4.4310   -1.1510 ca        1 MOL     -0.060413
     88 C30        -4.5780   -6.2380   -0.3890 ca        1 MOL     -0.060413
     89 C31        -7.1080   -5.2810   -0.9470 ca        1 MOL     -0.310322
     90 C32        -5.7030   -7.0690   -0.1930 ca        1 MOL     -0.310322
     91 C33        -7.0320   -6.5810   -0.4050 ca        1 MOL      0.418874
     92 O14        -8.0940   -7.4370   -0.3920 oh        1 MOL     -0.498112
     93 H37        -4.4860   -1.2850   -0.0370 hn        1 MOL      0.357949
     94 H38        -3.5080   -3.8370    1.3380 h1        1 MOL      0.063046
     95 H39        -2.6810   -4.4550   -1.0610 hc        1 MOL     -0.045720
     96 H40        -3.7250   -3.1600   -1.6190 hc        1 MOL     -0.045720
     97 H41        -6.0920   -3.3770   -1.3340 ha        1 MOL      0.090539
     98 H42        -3.5790   -6.5900   -0.1810 ha        1 MOL      0.090539
     99 H43        -8.0530   -4.8860   -1.2890 ha        1 MOL      0.150859
    100 H44        -5.5440   -8.0610    0.1990 ha        1 MOL      0.150859
    101 H45        -7.8590   -8.2850   -0.0260 ho        1 MOL      0.360022
    102 N10        -1.1040   -3.0900    1.2780 n         1 MOL     -0.446424
    103 C34         0.2730   -2.6340    1.3680 c3        1 MOL      0.255901
    104 C35         1.1460   -3.5770    0.5630 c         1 MOL      0.379646
    105 O15         0.9790   -4.8110    0.7250 o         1 MOL     -0.552852
    106 C36         0.6910   -2.4900    2.8810 c3        1 MOL      0.212480
    107 C37        -0.4160   -1.9700    3.9050 c3        1 MOL      0.216722
    108 C38         1.9560   -1.6750    2.8090 c3        1 MOL     -0.577383
    109 C39         0.0230   -1.6340    5.3230 c3        1 MOL     -0.180857
    110 H46        -1.2860   -4.0400    1.5660 hn        1 MOL      0.270416
    111 H47         0.4490   -1.7090    0.8160 h1        1 MOL     -0.147430
    112 H48         1.0040   -3.4830    3.2030 hc        1 MOL     -0.037078
    113 H49        -1.1610   -2.7640    3.8980 hc        1 MOL     -0.055677
    114 H50        -0.8840   -1.0890    3.4690 hc        1 MOL     -0.055677
    115 H51         1.7230   -0.6910    2.3980 hc        1 MOL      0.105433
    116 H52         2.4170   -1.6330    3.8030 hc        1 MOL      0.105433
    117 H53         2.7050   -2.2650    2.2910 hc        1 MOL      0.105433
    118 H54         0.9360   -1.0340    5.3430 hc        1 MOL      0.035057
    119 H55        -0.7020   -1.0240    5.8590 hc        1 MOL      0.035057
    120 H56         0.1900   -2.5300    5.9310 hc        1 MOL      0.035057
    121 N11         2.1690   -3.1060   -0.1420 n         1 MOL     -0.352735
    122 C40         3.1070   -3.9630   -0.9670 c3        1 MOL      0.071168
    123 C41         4.5630   -3.9150   -0.3810 c         1 MOL      0.281605
    124 O16         4.8550   -3.3240    0.6700 o         1 MOL     -0.316225
    125 C42         3.0680   -3.4420   -2.4760 c3        1 MOL      0.154576
    126 O17         1.8120   -2.8700   -2.7970 oh        1 MOL     -0.593581
    127 H57         2.3400   -2.1110   -0.1060 hn        1 MOL      0.592770
    128 H58         2.8600   -5.0270   -1.0130 h1        1 MOL      0.098199
    129 H59         3.4670   -4.2040   -3.1460 h1        1 MOL      0.004527
    130 H60         3.7040   -2.5580   -2.5720 h1        1 MOL      0.004527
    131 H61         1.5880   -2.0910   -2.2630 ho        1 MOL      0.341139
    132 N12         5.4920   -4.6650   -0.9370 n         1 MOL     -0.461069
    133 C43         6.9010   -4.7610   -0.5190 c3        1 MOL      0.395435
    134 C44         7.5160   -3.3830   -0.6320 c         1 MOL      0.286377
    135 O18         8.0970   -2.8570    0.3230 o         1 MOL     -0.487796
    136 C45         7.6360   -5.7130   -1.4010 c3        1 MOL     -0.576069
    137 H62         5.0980   -5.2310   -1.6710 hn        1 MOL      0.273237
    138 H63         7.0070   -5.0950    0.5200 h1        1 MOL      0.049559
    139 H64         7.3530   -5.5460   -2.4370 hc        1 MOL      0.159165
    140 H65         8.7050   -5.5110   -1.3910 hc        1 MOL      0.159165
    141 H66         7.2060   -6.7100   -1.2440 hc        1 MOL      0.159165
    142 N13         7.4250   -2.7840   -1.7720 n         1 MOL     -0.129945
    143 C46         8.0210   -1.4700   -1.9530 c3        1 MOL      0.031060
    144 C47         7.4040   -0.3980   -1.0240 c         1 MOL      0.382396
    145 O19         8.0470    0.6090   -0.5980 o         1 MOL     -0.519320
    146 C48         7.7890   -1.0020   -3.4500 c3        1 MOL     -0.447868
    147 H67         7.0260   -3.3630   -2.5020 hn        1 MOL      0.169227
    148 H68         9.0700   -1.5660   -1.6640 h1        1 MOL      0.113929
    149 H69         6.7700   -0.9640   -3.8210 hc        1 MOL      0.129881
    150 H70         8.1450    0.0290   -3.4130 hc        1 MOL      0.129881
    151 H71         8.2560   -1.7020   -4.1380 hc        1 MOL      0.129881
    152 N14         6.1740   -0.5600   -0.6750 n         1 MOL     -0.033639
    153 C49         5.4750    0.2130    0.3610 c3        1 MOL     -0.329768
    154 C50         5.9220    0.0260    1.8130 c         1 MOL      0.487736
    155 O20         6.0110    0.9190    2.6790 o         1 MOL     -0.533072
    156 C51         3.9400   -0.0180    0.3090 c3        1 MOL      0.042245
    157 C52         3.3310    0.3470   -1.1030 c3        1 MOL     -0.152866
    158 C53         1.8110    0.2990   -0.9810 c         1 MOL      0.624312
    159 O21         1.1530   -0.6790   -1.3890 o         1 MOL     -0.597635
    160 O22         1.0360    1.1670   -0.5030 o         1 MOL     -0.597635
    161 H72         5.7150   -1.3900   -1.0180 hn        1 MOL      0.047941
    162 H73         5.6900    1.2280    0.0210 h1        1 MOL      0.145012
    163 H74         3.4680    0.6700    1.0020 hc        1 MOL      0.095788
    164 H75         3.7030   -1.0530    0.5650 hc        1 MOL      0.095788
    165 H76         3.6560   -0.4080   -1.8200 hc        1 MOL     -0.006673
    166 H77         3.6830    1.3620   -1.3260 hc        1 MOL     -0.006673
    167 N15         6.1510   -1.2450    2.1820 n         1 MOL      0.054922
    168 C54         6.7180   -1.7180    3.4190 c3        1 MOL     -0.554334
    169 H78         7.7870   -1.5040    3.4330 h1        1 MOL      0.177428
    170 H79         6.2360   -1.2130    4.2560 h1        1 MOL      0.177428
    171 H80         6.5610   -2.7930    3.5030 h1        1 MOL      0.177428
    172 H81         5.9640   -2.0200    1.5590 hn        1 MOL      0.047481
    173 Ca1        -1.2450    0.5010   -1.4970 Ca        1 MOL      1.730635
    174 O23        -1.1820   -1.7410   -3.0250 oh        1 MOL     -0.846792
    175 H82        -0.4610   -1.8150   -3.6450 ho        1 MOL      0.396619
    176 H83        -1.9050   -2.2340   -3.4120 ho        1 MOL      0.396619
    177 O24         0.8220    1.6490   -3.2790 oh        1 MOL     -0.846792
    178 H84         1.6820    1.5360   -3.7040 ho        1 MOL      0.396619
    179 H85         0.5160    2.4970   -3.5670 ho        1 MOL      0.396619
    180 O25        -2.2300    0.8810   -4.0080 oh        1 MOL     -0.846792
    181 H86        -2.0180    0.4760   -4.8460 ho        1 MOL      0.396619
    182 H87        -2.0570    1.8100   -4.1370 ho        1 MOL      0.396619
@<TRIPOS>BOND
     1    1    2 1   
     2    1    4 1   
     3    1    5 1   
     4    1    6 1   
     5    2    3 2   
     6    2    7 1   
     7    7    8 1   
     8    7   15 1   
     9    8    9 1   
    10    8   11 1   
    11    8   16 1   
    12    9   10 2   
    13    9   19 1   
    14   11   12 1   
    15   11   17 1   
    16   11   18 1   
    17   12   13 1   
    18   12   14 1   
    19   19   20 1   
    20   19   28 1   
    21   20   21 1   
    22   20   23 1   
    23   20   29 1   
    24   21   22 2   
    25   21   41 1   
    26   23   24 1   
    27   23   30 1   
    28   23   31 1   
    29   24   25 1   
    30   24   32 1   
    31   24   33 1   
    32   25   26 1   
    33   25   34 1   
    34   25   35 1   
    35   26   27 1   
    36   26   36 1   
    37   26   37 1   
    38   27   38 1   
    39   27   39 1   
    40   27   40 1   
    41   41   42 1   
    42   41   49 1   
    43   42   43 1   
    44   42   45 1   
    45   42   50 1   
    46   43   44 2   
    47   43   53 1   
    48   45   46 1   
    49   45   51 1   
    50   45   52 1   
    51   46   47 1   
    52   46   48 1   
    53   53   54 1   
    54   53   57 1   
    55   54   55 1   
    56   54   58 1   
    57   54   59 1   
    58   55   56 2   
    59   55   60 1   
    60   60   61 1   
    61   60   68 1   
    62   61   62 1   
    63   61   64 1   
    64   61   69 1   
    65   62   63 2   
    66   62   74 1   
    67   64   65 1   
    68   64   70 1   
    69   64   71 1   
    70   65   66 1   
    71   65   67 2   
    72   66   72 1   
    73   66   73 1   
    74   74   75 1   
    75   74   78 1   
    76   75   76 1   
    77   75   79 1   
    78   75   80 1   
    79   76   77 2   
    80   76   81 1   
    81   81   82 1   
    82   81   93 1   
    83   82   83 1   
    84   82   85 1   
    85   82   94 1   
    86   83   84 2   
    87   83  102 1   
    88   85   86 1   
    89   85   95 1   
    90   85   96 1   
    91   86   87 ar  
    92   86   88 ar  
    93   87   89 ar  
    94   87   97 1   
    95   88   90 ar  
    96   88   98 1   
    97   89   91 ar  
    98   89   99 1   
    99   90   91 ar  
   100   90  100 1   
   101   91   92 1   
   102   92  101 1   
   103  102  103 1   
   104  102  110 1   
   105  103  104 1   
   106  103  106 1   
   107  103  111 1   
   108  104  105 2   
   109  104  121 1   
   110  106  107 1   
   111  106  108 1   
   112  106  112 1   
   113  107  109 1   
   114  107  113 1   
   115  107  114 1   
   116  108  115 1   
   117  108  116 1   
   118  108  117 1   
   119  109  118 1   
   120  109  119 1   
   121  109  120 1   
   122  121  122 1   
   123  121  127 1   
   124  122  123 1   
   125  122  125 1   
   126  122  128 1   
   127  123  124 2   
   128  123  132 1   
   129  125  126 1   
   130  125  129 1   
   131  125  130 1   
   132  126  131 1   
   133  132  133 1   
   134  132  137 1   
   135  133  134 1   
   136  133  136 1   
   137  133  138 1   
   138  134  135 2   
   139  134  142 1   
   140  136  139 1   
   141  136  140 1   
   142  136  141 1   
   143  142  143 1   
   144  142  147 1   
   145  143  144 1   
   146  143  146 1   
   147  143  148 1   
   148  144  145 2   
   149  144  152 1   
   150  146  149 1   
   151  146  150 1   
   152  146  151 1   
   153  152  153 1   
   154  152  161 1   
   155  153  154 1   
   156  153  156 1   
   157  153  162 1   
   158  154  155 2   
   159  154  167 1   
   160  156  157 1   
   161  156  163 1   
   162  156  164 1   
   163  157  158 1   
   164  157  165 1   
   165  157  166 1   
   166  158  159 1   
   167  158  160 1   
   168  167  168 1   
   169  167  172 1   
   170  168  169 1   
   171  168  170 1   
   172  168  171 1   
   173  174  175 1   
   174  174  176 1   
   175  177  178 1   
   176  177  179 1   
   177  180  181 1   
   178  180  182 1   
@<TRIPOS>SUBSTRUCTURE
     1 MOL         1 TEMP              0 ****  ****    0 ROOT
