@<TRIPOS>MOLECULE
MOL
  179   176     1     0     0
SMALL
resp


@<TRIPOS>ATOM
      1 C1          1.9650   -5.6380    4.9400 c3        1 MOL     -0.342083
      2 C2          1.6990   -4.9970    3.5700 c         1 MOL      0.619009
      3 O1          0.8630   -5.4160    2.7410 o         1 MOL     -0.567536
      4 H1          2.5710   -6.5340    4.8100 hc        1 MOL      0.092922
      5 H2          2.4960   -4.9300    5.5760 hc        1 MOL      0.092922
      6 H3          1.0160   -5.9070    5.4060 hc        1 MOL      0.092922
      7 N1          2.2160   -3.7690    3.4040 n         1 MOL     -0.418553
      8 C3          2.2250   -3.0670    2.1340 c3        1 MOL      0.113610
      9 C4          3.1500   -3.8750    1.1440 c         1 MOL      0.244150
     10 O2          4.3600   -3.6780    1.2160 o         1 MOL     -0.449337
     11 C5          2.7350   -1.5770    2.3510 c3        1 MOL     -0.255915
     12 C6          2.5220   -0.7610    1.1240 c         1 MOL      0.826518
     13 O3          1.9740   -1.3110    0.1470 o         1 MOL     -0.784902
     14 O4          2.9590    0.4200    0.9780 o         1 MOL     -0.784902
     15 H4          2.5920   -3.3870    4.2590 hn        1 MOL      0.272113
     16 H5          1.2240   -3.0520    1.6950 h1        1 MOL      0.092637
     17 H6          3.8110   -1.6400    2.5400 hc        1 MOL      0.088659
     18 H7          2.1900   -1.0540    3.1400 hc        1 MOL      0.088659
     19 N2          2.5790   -4.6590    0.2120 n         1 MOL     -0.106296
     20 C7          3.3830   -5.5240   -0.6500 c3        1 MOL     -0.088965
     21 C8          4.1060   -4.9270   -1.7870 c         1 MOL      0.508195
     22 O5          4.8300   -5.6310   -2.5010 o         1 MOL     -0.560183
     23 C9          2.4910   -6.7160   -1.0080 c3        1 MOL      0.064973
     24 C10         1.7780   -7.4390    0.1660 c3        1 MOL     -0.098498
     25 C11         2.6270   -7.9890    1.3590 c3        1 MOL     -0.224897
     26 C12         3.6760   -9.0400    0.9040 c3        1 MOL      0.197853
     27 N3          4.7850   -9.3200    1.8700 n4        1 MOL     -0.457005
     28 H8          1.5850   -4.8210    0.2440 hn        1 MOL      0.236489
     29 H9          4.1140   -6.0380   -0.0170 h1        1 MOL      0.057080
     30 H10         2.9970   -7.4580   -1.6300 hc        1 MOL      0.019193
     31 H11         1.7780   -6.2760   -1.6990 hc        1 MOL      0.019193
     32 H12         1.0800   -8.1430   -0.2980 hc        1 MOL      0.075033
     33 H13         1.0370   -6.7550    0.5660 hc        1 MOL      0.075033
     34 H14         1.9910   -8.4460    2.1250 hc        1 MOL      0.083136
     35 H15         3.1210   -7.1280    1.8110 hc        1 MOL      0.083136
     36 H16         4.1310   -8.6020    0.0120 hx        1 MOL      0.052030
     37 H17         3.2270   -9.9220    0.4570 hx        1 MOL      0.052030
     38 H18         5.5470   -9.7770    1.3720 hn        1 MOL      0.347642
     39 H19         5.1730   -8.5150    2.3480 hn        1 MOL      0.347642
     40 H20         4.5480   -9.9500    2.6200 hn        1 MOL      0.347642
     41 N4          3.8720   -3.6380   -2.0770 n         1 MOL     -0.310206
     42 C13         4.7420   -2.8240   -3.0210 c3        1 MOL      0.231623
     43 C14         5.7890   -2.0400   -2.1960 c         1 MOL      0.296315
     44 O6          6.8610   -1.7380   -2.6400 o         1 MOL     -0.531619
     45 C15         3.7420   -2.0510   -3.8210 c3        1 MOL     -0.359436
     46 C16         2.8690   -1.0630   -3.0320 c         1 MOL      0.930673
     47 O7          3.3450   -0.0620   -2.5290 o         1 MOL     -0.755740
     48 O8          1.6390   -1.2310   -3.1140 o         1 MOL     -0.755740
     49 H21         3.3030   -3.0690   -1.4670 hn        1 MOL      0.134345
     50 H22         5.2600   -3.5020   -3.7080 h1        1 MOL      0.072053
     51 H23         3.1010   -2.6620   -4.4470 hc        1 MOL      0.076444
     52 H24         4.3370   -1.4040   -4.4660 hc        1 MOL      0.076444
     53 N5          5.4400   -1.8770   -0.9550 n         1 MOL      0.117502
     54 C17         6.2720   -1.2080    0.0420 c3        1 MOL     -0.338780
     55 C18         6.3220    0.2930   -0.1030 c         1 MOL      0.579867
     56 O9          6.9600    0.8880    0.7980 o         1 MOL     -0.578725
     57 H25         4.6500   -2.3550   -0.5470 hn        1 MOL     -0.060465
     58 H26         7.3130   -1.5210   -0.0460 h1        1 MOL      0.152214
     59 H27         5.9850   -1.6610    0.9880 h1        1 MOL      0.152214
     60 N6          5.6960    0.9320   -1.1150 n         1 MOL     -0.386374
     61 C19         5.8630    2.3810   -1.3120 c3        1 MOL      0.098499
     62 C20         5.6940    3.2750   -0.1070 c         1 MOL      0.376978
     63 O10         6.2020    4.3710   -0.0140 o         1 MOL     -0.528022
     64 C21         5.0210    2.8970   -2.4540 c3        1 MOL     -0.095211
     65 C22         3.6090    3.3630   -2.1810 c         1 MOL      0.506530
     66 N7          3.0730    4.3200   -2.8410 n         1 MOL     -0.564589
     67 O11         2.9600    2.8070   -1.3050 o         1 MOL     -0.533340
     68 H28         4.9820    0.5000   -1.6810 hn        1 MOL      0.267979
     69 H29         6.8990    2.5220   -1.6390 h1        1 MOL      0.082263
     70 H30         5.0300    2.1540   -3.2430 hc        1 MOL      0.038641
     71 H31         5.6560    3.7150   -2.8040 hc        1 MOL      0.038641
     72 H32         3.6830    4.5750   -3.5990 hn        1 MOL      0.300749
     73 H33         2.0850    4.5610   -2.7910 hn        1 MOL      0.300749
     74 N8          4.9690    2.8040    0.9600 n         1 MOL     -0.035996
     75 C23         4.6920    3.5630    2.2050 c3        1 MOL     -0.290708
     76 C24         3.3200    4.1930    2.2390 c         1 MOL      0.527030
     77 O12         3.0750    4.8560    3.2880 o         1 MOL     -0.589469
     78 H34         4.5430    1.9010    0.8630 hn        1 MOL      0.189761
     79 H35         5.5230    4.2300    2.3970 h1        1 MOL      0.134454
     80 H36         4.6430    2.8860    3.0550 h1        1 MOL      0.134454
     81 N9          2.4210    4.0450    1.2700 n         1 MOL     -0.016440
     82 C25         1.0180    4.4330    1.2300 c3        1 MOL      0.291946
     83 C26         0.1190    3.1620    1.1430 c         1 MOL      0.062140
     84 O13         0.5820    2.1020    0.7640 o         1 MOL     -0.486612
     85 C27         0.7890    5.4190    0.1060 c3        1 MOL      0.018767
     86 C28         1.2030    6.8540    0.4280 ca        1 MOL      0.084141
     87 C29         2.5250    7.1640    0.6880 ca        1 MOL     -0.258548
     88 C30         0.2990    7.8910    0.2440 ca        1 MOL     -0.258548
     89 C31         2.9370    8.4880    0.9480 ca        1 MOL     -0.125181
     90 C32         0.6460    9.2100    0.5750 ca        1 MOL     -0.125181
     91 C33         1.9750    9.5520    0.9150 ca        1 MOL      0.196670
     92 O14         2.2390   10.8050    1.2930 oh        1 MOL     -0.430429
     93 H37         2.7420    3.5250    0.4630 hn        1 MOL      0.045233
     94 H38         0.7750    4.9370    2.1610 h1        1 MOL     -0.036600
     95 H39        -0.2670    5.3760   -0.1800 hc        1 MOL     -0.007323
     96 H40         1.3530    5.0720   -0.7560 hc        1 MOL     -0.007323
     97 H41         3.2250    6.3470    0.6390 ha        1 MOL      0.118621
     98 H42        -0.7260    7.6980   -0.0150 ha        1 MOL      0.118621
     99 H43         3.9830    8.6420    1.1410 ha        1 MOL      0.122437
    100 H44        -0.0730    9.9780    0.3320 ha        1 MOL      0.122437
    101 H45         1.4860   11.3900    1.3580 ho        1 MOL      0.344720
    102 N10        -1.0680    3.3010    1.6640 n         1 MOL     -0.044293
    103 C34        -2.0970    2.2680    1.5300 c3        1 MOL     -0.226712
    104 C35        -3.4970    2.7980    1.2580 c         1 MOL      0.547388
    105 O15        -4.0840    3.6010    2.0450 o         1 MOL     -0.515688
    106 C36        -1.9050    1.2750    2.6790 c3        1 MOL     -0.011512
    107 C37        -2.5170   -0.0250    2.2030 c3        1 MOL     -0.065664
    108 C38        -2.4770    1.6790    4.0430 c3        1 MOL     -0.293265
    109 C39        -2.3090   -1.2410    3.1030 c3        1 MOL     -0.451908
    110 H46        -1.3160    4.1960    2.0580 hn        1 MOL      0.232214
    111 H47        -1.9380    1.7350    0.5870 h1        1 MOL      0.078782
    112 H48        -0.8590    1.0130    2.8640 hc        1 MOL      0.140537
    113 H49        -2.0410   -0.3090    1.2680 hc        1 MOL      0.131316
    114 H50        -3.5700    0.1540    2.0020 hc        1 MOL      0.131316
    115 H51        -3.5610    1.6050    4.1350 hc        1 MOL      0.082930
    116 H52        -2.0200    1.0840    4.8280 hc        1 MOL      0.082930
    117 H53        -2.0870    2.6590    4.3260 hc        1 MOL      0.082930
    118 H54        -2.9390   -1.1970    3.9920 hc        1 MOL      0.112383
    119 H55        -2.5940   -2.1810    2.6260 hc        1 MOL      0.112383
    120 H56        -1.2650   -1.4490    3.2840 hc        1 MOL      0.112383
    121 N11        -4.1430    2.4000    0.1160 n         1 MOL     -0.413993
    122 C40        -5.5630    2.5460   -0.2490 c3        1 MOL     -0.003472
    123 C41        -6.5440    1.5340    0.2850 c         1 MOL      0.502552
    124 O16        -6.1450    0.6370    1.0640 o         1 MOL     -0.417358
    125 C42        -5.5760    2.5810   -1.8240 c3        1 MOL      0.170500
    126 O17        -5.8470    1.2870   -2.3970 oh        1 MOL     -0.605491
    127 H57        -3.7210    1.5880   -0.3020 hn        1 MOL      0.211751
    128 H58        -5.8510    3.5380    0.1020 h1        1 MOL      0.072051
    129 H59        -4.7100    3.0260   -2.3130 h1        1 MOL      0.036762
    130 H60        -6.3550    3.2560   -2.1670 h1        1 MOL      0.036762
    131 H61        -4.9970    0.8810   -2.6240 ho        1 MOL      0.411124
    132 N12        -7.8300    1.6890   -0.1100 n         1 MOL     -0.499284
    133 C43        -8.9120    0.8540    0.3190 c3        1 MOL      0.242954
    134 C44        -8.9750   -0.4470   -0.4200 c         1 MOL      0.355627
    135 O18        -9.4240   -1.4570    0.0890 o         1 MOL     -0.537169
    136 C45       -10.2160    1.6580    0.2220 c3        1 MOL     -0.390604
    137 H62        -8.0750    2.5030   -0.6510 hn        1 MOL      0.295499
    138 H63        -8.7480    0.6240    1.3640 h1        1 MOL      0.073938
    139 H64       -10.3510    2.0360   -0.7920 hc        1 MOL      0.114715
    140 H65       -11.0080    0.9430    0.4510 hc        1 MOL      0.114715
    141 H66       -10.3170    2.3730    1.0300 hc        1 MOL      0.114715
    142 N13        -8.4490   -0.5370   -1.6130 n         1 MOL     -0.255639
    143 C46        -8.3940   -1.8290   -2.3540 c3        1 MOL      0.036686
    144 C47        -7.3240   -2.7710   -1.7230 c         1 MOL      0.419468
    145 O19        -7.4960   -4.0200   -1.8120 o         1 MOL     -0.526457
    146 C48        -8.0350   -1.5440   -3.8380 c3        1 MOL     -0.284728
    147 H67        -8.0810    0.3410   -1.9550 hn        1 MOL      0.232702
    148 H68        -9.3480   -2.3500   -2.3440 h1        1 MOL      0.120701
    149 H69        -8.0260   -2.5060   -4.3510 hc        1 MOL      0.082056
    150 H70        -8.7380   -0.8120   -4.2360 hc        1 MOL      0.082056
    151 H71        -7.0360   -1.1270   -4.0030 hc        1 MOL      0.082056
    152 N14        -6.2770   -2.2220   -1.1970 n         1 MOL     -0.139318
    153 C49        -5.1720   -2.9550   -0.5920 c3        1 MOL     -0.075294
    154 C50        -5.5150   -3.4320    0.8300 c         1 MOL      0.495221
    155 O20        -5.3280   -4.6020    1.1830 o         1 MOL     -0.551829
    156 C51        -4.0260   -1.9920   -0.3720 c3        1 MOL      0.147839
    157 C52        -2.9800   -1.9010   -1.5160 c3        1 MOL     -0.184430
    158 C53        -2.0950   -0.6110   -1.4660 c         1 MOL      0.759304
    159 O21        -0.8980   -0.6150   -1.1560 o         1 MOL     -0.735244
    160 O22        -2.7880    0.3960   -1.7010 o         1 MOL     -0.735244
    161 H72        -6.1460   -1.2630   -1.5070 hn        1 MOL      0.144551
    162 H73        -4.8630   -3.8420   -1.1440 h1        1 MOL      0.070364
    163 H74        -3.5310   -2.4100    0.5000 hc        1 MOL      0.003679
    164 H75        -4.4350   -1.0080   -0.1300 hc        1 MOL      0.003679
    165 H76        -3.5740   -1.8930   -2.4260 hc        1 MOL      0.033220
    166 H77        -2.3750   -2.8040   -1.5710 hc        1 MOL      0.033220
    167 N15        -5.9730   -2.5190    1.6420 n         1 MOL     -0.215172
    168 C54        -5.9000   -2.7370    3.1220 c3        1 MOL     -0.047831
    169 H78        -6.7480   -2.2510    3.6020 h1        1 MOL      0.058525
    170 H79        -5.9270   -3.8060    3.3340 h1        1 MOL      0.058525
    171 H80        -4.9730   -2.3130    3.5060 h1        1 MOL      0.058525
    172 H81        -6.0540   -1.5770    1.2770 hn        1 MOL      0.103038
    173 Ca1         1.2680    0.6550   -1.3340 Ca        1 MOL      1.731200
    174 O23        -0.9400    2.1670   -1.9200 oh        1 MOL     -0.817920
    175 H82        -1.7160    1.6140   -1.7950 ho        1 MOL      0.394691
    176 H83        -1.1290    2.6800   -2.7080 ho        1 MOL      0.394691
    177 O24         1.2380    2.1840   -3.7130 oh        1 MOL     -0.817920
    178 H84         1.1350    3.1210   -3.5620 ho        1 MOL      0.394691
    179 H85         1.8640    2.1230   -4.4390 ho        1 MOL      0.394691
@<TRIPOS>BOND
     1    1    2 1   
     2    1    4 1   
     3    1    5 1   
     4    1    6 1   
     5    2    3 2   
     6    2    7 1   
     7    7    8 1   
     8    7   15 1   
     9    8    9 1   
    10    8   11 1   
    11    8   16 1   
    12    9   10 2   
    13    9   19 1   
    14   11   12 1   
    15   11   17 1   
    16   11   18 1   
    17   12   13 1   
    18   12   14 1   
    19   19   20 1   
    20   19   28 1   
    21   20   21 1   
    22   20   23 1   
    23   20   29 1   
    24   21   22 2   
    25   21   41 1   
    26   23   24 1   
    27   23   30 1   
    28   23   31 1   
    29   24   25 1   
    30   24   32 1   
    31   24   33 1   
    32   25   26 1   
    33   25   34 1   
    34   25   35 1   
    35   26   27 1   
    36   26   36 1   
    37   26   37 1   
    38   27   38 1   
    39   27   39 1   
    40   27   40 1   
    41   41   42 1   
    42   41   49 1   
    43   42   43 1   
    44   42   45 1   
    45   42   50 1   
    46   43   44 2   
    47   43   53 1   
    48   45   46 1   
    49   45   51 1   
    50   45   52 1   
    51   46   47 1   
    52   46   48 1   
    53   53   54 1   
    54   53   57 1   
    55   54   55 1   
    56   54   58 1   
    57   54   59 1   
    58   55   56 2   
    59   55   60 1   
    60   60   61 1   
    61   60   68 1   
    62   61   62 1   
    63   61   64 1   
    64   61   69 1   
    65   62   63 2   
    66   62   74 1   
    67   64   65 1   
    68   64   70 1   
    69   64   71 1   
    70   65   66 1   
    71   65   67 2   
    72   66   72 1   
    73   66   73 1   
    74   74   75 1   
    75   74   78 1   
    76   75   76 1   
    77   75   79 1   
    78   75   80 1   
    79   76   77 2   
    80   76   81 1   
    81   81   82 1   
    82   81   93 1   
    83   82   83 1   
    84   82   85 1   
    85   82   94 1   
    86   83   84 2   
    87   83  102 1   
    88   85   86 1   
    89   85   95 1   
    90   85   96 1   
    91   86   87 ar  
    92   86   88 ar  
    93   87   89 ar  
    94   87   97 1   
    95   88   90 ar  
    96   88   98 1   
    97   89   91 ar  
    98   89   99 1   
    99   90   91 ar  
   100   90  100 1   
   101   91   92 1   
   102   92  101 1   
   103  102  103 1   
   104  102  110 1   
   105  103  104 1   
   106  103  106 1   
   107  103  111 1   
   108  104  105 2   
   109  104  121 1   
   110  106  107 1   
   111  106  108 1   
   112  106  112 1   
   113  107  109 1   
   114  107  113 1   
   115  107  114 1   
   116  108  115 1   
   117  108  116 1   
   118  108  117 1   
   119  109  118 1   
   120  109  119 1   
   121  109  120 1   
   122  121  122 1   
   123  121  127 1   
   124  122  123 1   
   125  122  125 1   
   126  122  128 1   
   127  123  124 2   
   128  123  132 1   
   129  125  126 1   
   130  125  129 1   
   131  125  130 1   
   132  126  131 1   
   133  132  133 1   
   134  132  137 1   
   135  133  134 1   
   136  133  136 1   
   137  133  138 1   
   138  134  135 2   
   139  134  142 1   
   140  136  139 1   
   141  136  140 1   
   142  136  141 1   
   143  142  143 1   
   144  142  147 1   
   145  143  144 1   
   146  143  146 1   
   147  143  148 1   
   148  144  145 2   
   149  144  152 1   
   150  146  149 1   
   151  146  150 1   
   152  146  151 1   
   153  152  153 1   
   154  152  161 1   
   155  153  154 1   
   156  153  156 1   
   157  153  162 1   
   158  154  155 2   
   159  154  167 1   
   160  156  157 1   
   161  156  163 1   
   162  156  164 1   
   163  157  158 1   
   164  157  165 1   
   165  157  166 1   
   166  158  159 1   
   167  158  160 1   
   168  167  168 1   
   169  167  172 1   
   170  168  169 1   
   171  168  170 1   
   172  168  171 1   
   173  174  175 1   
   174  174  176 1   
   175  177  178 1   
   176  177  179 1   
@<TRIPOS>SUBSTRUCTURE
     1 MOL         1 TEMP              0 ****  ****    0 ROOT
