@<TRIPOS>MOLECULE
MOL
  189   185     1     0     0
SMALL
resp


@<TRIPOS>ATOM
      1 C1         -0.4490    3.0680    4.9770 c3        1 MOL     -0.157658
      2 C2         -0.9100    2.8460    3.5190 c         1 MOL      0.548118
      3 O1         -0.1640    3.0810    2.5700 o         1 MOL     -0.570628
      4 H1          0.6320    2.9400    5.0390 hc        1 MOL      0.043508
      5 H2         -0.7130    4.0770    5.2930 hc        1 MOL      0.043508
      6 H3         -0.9380    2.3430    5.6270 hc        1 MOL      0.043508
      7 N1         -2.1820    2.4560    3.3170 n         1 MOL     -0.511613
      8 C3         -2.6610    2.0170    2.0630 c3        1 MOL      0.074853
      9 C4         -3.3020    3.1690    1.3610 c         1 MOL      0.415924
     10 O2         -4.4630    3.4880    1.6390 o         1 MOL     -0.516256
     11 C5         -3.5830    0.8690    2.3970 c3        1 MOL     -0.035701
     12 C6         -4.1370    0.1190    1.1590 c         1 MOL      0.646454
     13 O3         -5.1540   -0.5640    1.4460 o         1 MOL     -0.650116
     14 O4         -3.7250    0.2150   -0.0070 o         1 MOL     -0.650116
     15 H4         -2.8430    2.3530    4.0770 hn        1 MOL      0.318391
     16 H5         -1.8260    1.6370    1.4810 h1        1 MOL      0.047900
     17 H6         -4.5010    1.1810    2.9030 hc        1 MOL      0.012525
     18 H7         -3.1720    0.1280    3.0840 hc        1 MOL      0.012525
     19 N2         -2.4970    3.7920    0.5110 n         1 MOL     -0.283150
     20 C7         -2.7730    5.0630   -0.1460 c3        1 MOL     -0.045032
     21 C8         -3.8570    4.9980   -1.2670 c         1 MOL      0.426795
     22 O5         -4.2620    6.0900   -1.7870 o         1 MOL     -0.557404
     23 C9         -1.4280    5.7110   -0.6060 c3        1 MOL     -0.041665
     24 C10        -1.0370    6.9790    0.2310 c3        1 MOL      0.138714
     25 C11        -0.7720    6.6290    1.7480 c3        1 MOL     -0.225624
     26 C12         0.2290    7.6810    2.2610 c3        1 MOL      0.074698
     27 N3          0.7940    7.4240    3.6160 n4        1 MOL     -0.319048
     28 H8         -1.6280    3.3230    0.3060 hn        1 MOL      0.347525
     29 H9         -3.1620    5.7170    0.6350 h1        1 MOL      0.082883
     30 H10        -1.5480    6.0200   -1.6460 hc        1 MOL      0.040542
     31 H11        -0.6590    4.9530   -0.5460 hc        1 MOL      0.040542
     32 H12        -1.7780    7.7710    0.0820 hc        1 MOL     -0.009669
     33 H13        -0.0940    7.3570   -0.1640 hc        1 MOL     -0.009669
     34 H14        -0.2290    5.6890    1.8270 hc        1 MOL      0.093739
     35 H15        -1.7420    6.6260    2.2490 hc        1 MOL      0.093739
     36 H16        -0.3020    8.6350    2.2150 hx        1 MOL      0.067219
     37 H17         1.0870    7.7800    1.5950 hx        1 MOL      0.067219
     38 H18         1.4810    6.6900    3.6610 hn        1 MOL      0.315521
     39 H19         1.2360    8.2340    4.0310 hn        1 MOL      0.315521
     40 H20         0.0130    7.2330    4.2330 hn        1 MOL      0.315521
     41 N4         -4.3430    3.8060   -1.5150 n         1 MOL     -0.016497
     42 C13        -5.3590    3.5630   -2.5310 c3        1 MOL     -0.130732
     43 C14        -6.3830    2.5040   -2.1680 c         1 MOL      0.438133
     44 O6         -7.4080    2.3210   -2.8850 o         1 MOL     -0.496973
     45 C15        -4.6340    3.2570   -3.8680 c3        1 MOL     -0.052219
     46 C16        -3.4430    2.2190   -3.7630 c         1 MOL      0.607193
     47 O7         -3.3970    1.3750   -2.7990 o         1 MOL     -0.606361
     48 O8         -2.5030    2.3210   -4.6430 o         1 MOL     -0.606361
     49 H21        -4.1070    3.0900   -0.8390 hn        1 MOL     -0.058708
     50 H22        -5.8930    4.5050   -2.6330 h1        1 MOL      0.108446
     51 H23        -4.2060    4.1930   -4.2290 hc        1 MOL      0.032345
     52 H24        -5.3710    2.9530   -4.6170 hc        1 MOL      0.032345
     53 N5         -6.2530    1.8740   -1.0280 n         1 MOL     -0.181597
     54 C17        -7.3670    1.1410   -0.3580 c3        1 MOL     -0.147677
     55 C18        -7.6060   -0.2060   -1.0780 c         1 MOL      0.472516
     56 O9         -8.6920   -0.3230   -1.6830 o         1 MOL     -0.554136
     57 H25        -5.3750    1.9540   -0.5290 hn        1 MOL      0.244737
     58 H26        -8.2890    1.7260   -0.3550 h1        1 MOL      0.097262
     59 H27        -7.1160    0.8800    0.6650 h1        1 MOL      0.097262
     60 N6         -6.6730   -1.1770   -1.1190 n         1 MOL     -0.125179
     61 C19        -6.8000   -2.4700   -1.7100 c3        1 MOL     -0.050706
     62 C20        -6.8150   -3.5310   -0.5840 c         1 MOL      0.409623
     63 O10        -6.9190   -4.7250   -0.8430 o         1 MOL     -0.505600
     64 C21        -5.7670   -2.6800   -2.8280 c3        1 MOL     -0.153914
     65 C22        -4.3490   -2.4220   -2.5560 c         1 MOL      0.888457
     66 O11        -3.8300   -2.5350   -1.4590 o         1 MOL     -0.810194
     67 O12        -3.6770   -1.9210   -3.4320 o         1 MOL     -0.810194
     68 H28        -5.8330   -0.8820   -0.6470 hn        1 MOL      0.053977
     69 H29        -7.7650   -2.5020   -2.2300 h1        1 MOL      0.110162
     70 H30        -6.1780   -2.0120   -3.5870 hc        1 MOL      0.060789
     71 H31        -5.7850   -3.6620   -3.3140 hc        1 MOL      0.060789
     72 N7         -6.5730   -3.0950    0.7100 n         1 MOL     -0.327307
     73 C23        -6.3370   -3.9530    1.8120 c3        1 MOL     -0.054200
     74 C24        -4.9120   -4.4250    2.0150 c         1 MOL      0.482235
     75 O13        -4.7330   -5.3250    2.9120 o         1 MOL     -0.583201
     76 H32        -6.4720   -2.1010    0.8720 hn        1 MOL      0.235256
     77 H33        -6.9110   -4.8700    1.6490 h1        1 MOL      0.080525
     78 H34        -6.6530   -3.5740    2.7820 h1        1 MOL      0.080525
     79 N8         -3.9730   -3.8380    1.2820 n         1 MOL     -0.251675
     80 C25        -2.5470   -4.3480    1.2700 c3        1 MOL     -0.398502
     81 C26        -1.6500   -3.1400    1.4020 c         1 MOL      0.825025
     82 O14        -1.6310   -2.2550    0.6080 o         1 MOL     -0.702543
     83 C27        -2.1400   -5.2700    0.1380 c3        1 MOL      0.541567
     84 C28        -2.7260   -6.6640    0.3390 c3        1 MOL     -0.567585
     85 O15        -2.4360   -4.7580   -1.1230 oh        1 MOL     -0.625991
     86 H35        -4.3060   -3.2360    0.5470 hn        1 MOL      0.301601
     87 H36        -2.4240   -4.9490    2.1730 h1        1 MOL      0.139148
     88 H37        -1.0500   -5.2600    0.1210 h1        1 MOL     -0.013907
     89 H38        -3.0380   -4.0370   -0.9450 ho        1 MOL      0.415706
     90 H39        -2.4990   -7.2750   -0.5440 hc        1 MOL      0.146752
     91 H40        -2.1800   -7.0810    1.1930 hc        1 MOL      0.146752
     92 H41        -3.7660   -6.6870    0.6520 hc        1 MOL      0.146752
     93 N9         -0.6980   -3.2980    2.3070 n         1 MOL     -0.621021
     94 C29         0.5050   -2.5530    2.3320 c3        1 MOL      0.032151
     95 C30         1.5880   -3.2270    1.5230 c         1 MOL      0.416243
     96 O16         2.0630   -4.3550    1.8740 o         1 MOL     -0.564956
     97 C31         0.9520   -2.3990    3.7600 c3        1 MOL      0.278122
     98 C32        -0.1550   -1.6380    4.6100 c3        1 MOL     -0.161094
     99 C33         2.1840   -1.3840    3.8440 c3        1 MOL     -0.438815
    100 C34         0.0430   -1.6130    6.0910 c3        1 MOL     -0.087917
    101 H42        -0.7350   -4.1080    2.8990 hn        1 MOL      0.318612
    102 H43         0.3260   -1.5480    1.9550 h1        1 MOL      0.099767
    103 H44         1.1690   -3.4150    4.0720 hc        1 MOL     -0.009262
    104 H45        -1.1110   -2.1070    4.3740 hc        1 MOL      0.071456
    105 H46        -0.1360   -0.6250    4.2310 hc        1 MOL      0.071456
    106 H47         1.9420   -0.4400    3.3610 hc        1 MOL      0.086604
    107 H48         2.5190   -1.3110    4.8760 hc        1 MOL      0.086604
    108 H49         3.0040   -1.8420    3.2850 hc        1 MOL      0.086604
    109 H50         0.1360   -2.6580    6.4150 hc        1 MOL      0.027688
    110 H51         0.8770   -1.0070    6.4280 hc        1 MOL      0.027688
    111 H52        -0.7740   -1.1460    6.6480 hc        1 MOL      0.027688
    112 N10         2.2290   -2.6040    0.5220 n         1 MOL     -0.041336
    113 C35         3.5340   -2.9360   -0.1140 c3        1 MOL     -0.144456
    114 C36         4.7240   -2.2800    0.5940 c         1 MOL      0.483210
    115 O17         4.5180   -1.3490    1.3890 o         1 MOL     -0.441919
    116 C37         3.5310   -2.5910   -1.5990 c3        1 MOL      0.407990
    117 C38         2.8410   -3.6490   -2.3350 c3        1 MOL     -0.342451
    118 O18         3.0170   -1.2850   -1.6960 oh        1 MOL     -0.628386
    119 H53         1.8980   -1.6680    0.3690 hn        1 MOL      0.185627
    120 H54         3.6450   -4.0130    0.0060 h1        1 MOL      0.064199
    121 H55         4.5140   -2.5880   -2.0720 h1        1 MOL     -0.021039
    122 H56         2.1110   -1.2070   -1.4030 ho        1 MOL      0.360443
    123 H57         3.4880   -4.5280   -2.3670 hc        1 MOL      0.081398
    124 H58         1.8930   -3.8090   -1.8330 hc        1 MOL      0.081398
    125 H59         2.7170   -3.3880   -3.3940 hc        1 MOL      0.081398
    126 N11         5.9400   -2.6580    0.2240 n         1 MOL     -0.337057
    127 C39         7.1740   -2.1200    0.8520 c3        1 MOL     -0.063920
    128 C40         7.4570   -0.6550    0.4770 c         1 MOL      0.241391
    129 O19         7.9030    0.0790    1.3690 o         1 MOL     -0.452399
    130 C41         8.4190   -2.8910    0.4530 c3        1 MOL      0.252442
    131 C42         8.5470   -4.3490    0.9160 c3        1 MOL     -0.369444
    132 O20         8.6700   -2.9930   -0.8810 oh        1 MOL     -0.649184
    133 H60         6.0840   -3.4680   -0.3620 hn        1 MOL      0.272319
    134 H61         7.1250   -2.2480    1.9350 h1        1 MOL      0.140685
    135 H62         9.2940   -2.4050    0.8920 h1        1 MOL      0.050833
    136 H63         9.4840   -3.5100   -0.9080 ho        1 MOL      0.418900
    137 H64         9.5290   -4.7050    0.6040 hc        1 MOL      0.104891
    138 H65         8.6100   -4.3720    2.0020 hc        1 MOL      0.104891
    139 H66         7.6840   -4.9030    0.5490 hc        1 MOL      0.104891
    140 N12         7.0730   -0.2670   -0.7680 n         1 MOL     -0.123836
    141 C43         7.3010    1.1580   -1.1830 c3        1 MOL     -0.085217
    142 C44         6.3220    2.0440   -0.5090 c         1 MOL      0.395474
    143 O21         6.6920    3.1480   -0.1440 o         1 MOL     -0.489533
    144 C45         7.5230    1.2920   -2.7300 c3        1 MOL     -0.223045
    145 C46         8.7610    0.5410   -3.1050 c3        1 MOL      0.217194
    146 C47         9.1040    0.7040   -4.6200 c3        1 MOL     -0.051077
    147 C48        10.5060    0.0840   -4.8690 c3        1 MOL     -0.026850
    148 N13        11.6320    1.0090   -4.6100 n4        1 MOL     -0.299559
    149 H67         6.6460   -0.9930   -1.3310 hn        1 MOL      0.246153
    150 H68         8.2030    1.4610   -0.6440 h1        1 MOL      0.123867
    151 H69         7.5890    2.3230   -3.0800 hc        1 MOL      0.084829
    152 H70         6.6340    0.8280   -3.1510 hc        1 MOL      0.084829
    153 H71         8.6030   -0.5220   -2.9400 hc        1 MOL     -0.036689
    154 H72         9.5650    0.9110   -2.4730 hc        1 MOL     -0.036689
    155 H73         9.0510    1.7610   -4.8530 hc        1 MOL      0.047692
    156 H74         8.2870    0.2150   -5.1540 hc        1 MOL      0.047692
    157 H75        10.4710   -0.0860   -5.9530 hx        1 MOL      0.093508
    158 H76        10.6390   -0.8500   -4.3250 hx        1 MOL      0.093508
    159 H77        11.4520    1.9520   -4.9160 hn        1 MOL      0.267617
    160 H78        11.7160    1.2230   -3.6320 hn        1 MOL      0.267617
    161 H79        12.4490    0.6200   -5.0680 hn        1 MOL      0.267617
    162 N14         5.0940    1.5520   -0.1650 n         1 MOL     -0.135465
    163 C49         4.1270    2.2570    0.6250 c3        1 MOL     -0.168701
    164 C50         4.6760    2.4120    2.0710 c         1 MOL      0.292232
    165 O22         4.5390    3.5450    2.7070 o         1 MOL     -0.519114
    166 C51         2.7270    1.5730    0.6050 c3        1 MOL      0.204466
    167 C52         1.7760    1.7550   -0.5870 c3        1 MOL     -0.512264
    168 C53         0.5670    0.8250   -0.6460 c         1 MOL      1.043173
    169 O23         0.6140   -0.3980   -0.7610 o         1 MOL     -0.826852
    170 O24        -0.5460    1.4070   -0.7560 o         1 MOL     -0.826852
    171 H80         4.8880    0.6330   -0.5180 hn        1 MOL      0.148390
    172 H81         4.0520    3.2850    0.2680 h1        1 MOL      0.128975
    173 H82         2.1510    1.9640    1.4330 hc        1 MOL      0.005854
    174 H83         2.7840    0.4840    0.7580 hc        1 MOL      0.005854
    175 H84         2.2820    1.4870   -1.5170 hc        1 MOL      0.106752
    176 H85         1.4490    2.7810   -0.4340 hc        1 MOL      0.106752
    177 N15         5.3350    1.3660    2.6280 n         1 MOL      0.008745
    178 C54         5.8810    1.5150    3.8940 c3        1 MOL     -0.175628
    179 H86         6.9480    1.2900    3.8570 h1        1 MOL      0.067519
    180 H87         5.7380    2.5420    4.2340 h1        1 MOL      0.067519
    181 H88         5.3900    0.8310    4.5870 h1        1 MOL      0.067519
    182 H89         5.4200    0.4750    2.1620 hn        1 MOL      0.164127
    183 Ca1        -1.9690   -0.6500   -1.6580 Ca        1 MOL      1.733773
    184 O25        -0.6900   -0.2180   -3.8190 oh        1 MOL     -0.766678
    185 H90        -0.6040   -1.0840   -4.2250 ho        1 MOL      0.380146
    186 H91        -0.4280    0.3940   -4.5120 ho        1 MOL      0.380146
    187 O26        -0.8640   -2.9280   -2.4740 oh        1 MOL     -0.766678
    188 H92        -0.2880   -3.1400   -3.2090 ho        1 MOL      0.380146
    189 H93        -1.3970   -3.7100   -2.3560 ho        1 MOL      0.380146
@<TRIPOS>BOND
     1    1    2 1   
     2    1    4 1   
     3    1    5 1   
     4    1    6 1   
     5    2    3 2   
     6    2    7 1   
     7    7    8 1   
     8    7   15 1   
     9    8    9 1   
    10    8   11 1   
    11    8   16 1   
    12    9   10 2   
    13    9   19 1   
    14   11   12 1   
    15   11   17 1   
    16   11   18 1   
    17   12   13 1   
    18   12   14 1   
    19   19   20 1   
    20   19   28 1   
    21   20   21 1   
    22   20   23 1   
    23   20   29 1   
    24   21   22 2   
    25   21   41 1   
    26   23   24 1   
    27   23   30 1   
    28   23   31 1   
    29   24   25 1   
    30   24   32 1   
    31   24   33 1   
    32   25   26 1   
    33   25   34 1   
    34   25   35 1   
    35   26   27 1   
    36   26   36 1   
    37   26   37 1   
    38   27   38 1   
    39   27   39 1   
    40   27   40 1   
    41   41   42 1   
    42   41   49 1   
    43   42   43 1   
    44   42   45 1   
    45   42   50 1   
    46   43   44 2   
    47   43   53 1   
    48   45   46 1   
    49   45   51 1   
    50   45   52 1   
    51   46   47 1   
    52   46   48 1   
    53   53   54 1   
    54   53   57 1   
    55   54   55 1   
    56   54   58 1   
    57   54   59 1   
    58   55   56 2   
    59   55   60 1   
    60   60   61 1   
    61   60   68 1   
    62   61   62 1   
    63   61   64 1   
    64   61   69 1   
    65   62   63 2   
    66   62   72 1   
    67   64   65 1   
    68   64   70 1   
    69   64   71 1   
    70   65   66 1   
    71   65   67 1   
    72   72   73 1   
    73   72   76 1   
    74   73   74 1   
    75   73   77 1   
    76   73   78 1   
    77   74   75 2   
    78   74   79 1   
    79   79   80 1   
    80   79   86 1   
    81   80   81 1   
    82   80   83 1   
    83   80   87 1   
    84   81   82 2   
    85   81   93 1   
    86   83   84 1   
    87   83   85 1   
    88   83   88 1   
    89   84   90 1   
    90   84   91 1   
    91   84   92 1   
    92   85   89 1   
    93   93   94 1   
    94   93  101 1   
    95   94   95 1   
    96   94   97 1   
    97   94  102 1   
    98   95   96 2   
    99   95  112 1   
   100   97   98 1   
   101   97   99 1   
   102   97  103 1   
   103   98  100 1   
   104   98  104 1   
   105   98  105 1   
   106   99  106 1   
   107   99  107 1   
   108   99  108 1   
   109  100  109 1   
   110  100  110 1   
   111  100  111 1   
   112  112  113 1   
   113  112  119 1   
   114  113  114 1   
   115  113  116 1   
   116  113  120 1   
   117  114  115 2   
   118  114  126 1   
   119  116  117 1   
   120  116  118 1   
   121  116  121 1   
   122  117  123 1   
   123  117  124 1   
   124  117  125 1   
   125  118  122 1   
   126  126  127 1   
   127  126  133 1   
   128  127  128 1   
   129  127  130 1   
   130  127  134 1   
   131  128  129 2   
   132  128  140 1   
   133  130  131 1   
   134  130  132 1   
   135  130  135 1   
   136  131  137 1   
   137  131  138 1   
   138  131  139 1   
   139  132  136 1   
   140  140  141 1   
   141  140  149 1   
   142  141  142 1   
   143  141  144 1   
   144  141  150 1   
   145  142  143 2   
   146  142  162 1   
   147  144  145 1   
   148  144  151 1   
   149  144  152 1   
   150  145  146 1   
   151  145  153 1   
   152  145  154 1   
   153  146  147 1   
   154  146  155 1   
   155  146  156 1   
   156  147  148 1   
   157  147  157 1   
   158  147  158 1   
   159  148  159 1   
   160  148  160 1   
   161  148  161 1   
   162  162  163 1   
   163  162  171 1   
   164  163  164 1   
   165  163  166 1   
   166  163  172 1   
   167  164  165 2   
   168  164  177 1   
   169  166  167 1   
   170  166  173 1   
   171  166  174 1   
   172  167  168 1   
   173  167  175 1   
   174  167  176 1   
   175  168  169 1   
   176  168  170 1   
   177  177  178 1   
   178  177  182 1   
   179  178  179 1   
   180  178  180 1   
   181  178  181 1   
   182  184  185 1   
   183  184  186 1   
   184  187  188 1   
   185  187  189 1   
@<TRIPOS>SUBSTRUCTURE
     1 MOL         1 TEMP              0 ****  ****    0 ROOT
