@<TRIPOS>MOLECULE
MOL
  189   185     1     0     0
SMALL
resp


@<TRIPOS>ATOM
      1 C1         -0.7380    3.3770    5.5850 c3        1 MOL     -0.252908
      2 C2         -0.8910    2.9070    4.1630 c         1 MOL      0.721860
      3 O1          0.0450    2.9550    3.3910 o         1 MOL     -0.617297
      4 H1         -1.4680    2.8690    6.2150 hc        1 MOL      0.058078
      5 H2          0.2680    3.1480    5.9380 hc        1 MOL      0.058078
      6 H3         -0.9040    4.4530    5.6320 hc        1 MOL      0.058078
      7 N1         -2.1020    2.3430    3.8590 n         1 MOL     -0.574748
      8 C3         -2.4400    1.8290    2.4980 c3        1 MOL      0.001749
      9 C4         -2.8300    3.0620    1.6200 c         1 MOL      0.544226
     10 O2         -3.9220    3.5820    1.7830 o         1 MOL     -0.514187
     11 C5         -3.7290    0.9050    2.6340 c3        1 MOL     -0.163111
     12 C6         -4.2600    0.4720    1.2010 c         1 MOL      0.448239
     13 O3         -3.5240    0.5590    0.1300 o         1 MOL     -0.503999
     14 O4         -5.3280   -0.1250    1.0520 o         1 MOL     -0.503999
     15 H4         -2.7640    2.3190    4.6150 hn        1 MOL      0.334485
     16 H5         -1.5460    1.3910    2.0470 h1        1 MOL      0.051703
     17 H6         -4.5310    1.3470    3.2170 hc        1 MOL      0.077964
     18 H7         -3.4270    0.0680    3.2510 hc        1 MOL      0.077964
     19 N2         -1.9280    3.4870    0.7180 n         1 MOL     -0.264656
     20 C7         -2.1570    4.7020   -0.0670 c3        1 MOL     -0.084050
     21 C8         -3.3790    4.6640   -0.9750 c         1 MOL      0.632867
     22 O5         -3.7750    5.7560   -1.4750 o         1 MOL     -0.608391
     23 C9         -0.8990    4.9860   -0.9210 c3        1 MOL      0.074171
     24 C10         0.4230    5.0910   -0.1050 c3        1 MOL     -0.031762
     25 C11         0.4330    6.4440    0.5960 c3        1 MOL     -0.160133
     26 C12         1.9130    6.5740    1.1140 c3        1 MOL      0.143776
     27 N3          2.0230    7.6490    2.1110 n4        1 MOL     -0.380635
     28 H8         -1.2750    2.7720    0.4440 hn        1 MOL      0.280710
     29 H9         -2.4430    5.5380    0.5740 h1        1 MOL      0.069340
     30 H10        -1.0900    5.8740   -1.5280 hc        1 MOL      0.020805
     31 H11        -0.9050    4.1460   -1.6080 hc        1 MOL      0.020805
     32 H12         1.2610    4.9690   -0.7950 hc        1 MOL      0.021598
     33 H13         0.5730    4.3670    0.6950 hc        1 MOL      0.021598
     34 H14        -0.3350    6.3690    1.3550 hc        1 MOL      0.061131
     35 H15         0.1430    7.2070   -0.1340 hc        1 MOL      0.061131
     36 H16         2.6340    6.7690    0.3200 hx        1 MOL      0.067606
     37 H17         2.2310    5.6100    1.5290 hx        1 MOL      0.067606
     38 H18         1.3590    7.5070    2.8590 hn        1 MOL      0.324100
     39 H19         2.8950    7.6450    2.6120 hn        1 MOL      0.324100
     40 H20         1.7760    8.5770    1.8000 hn        1 MOL      0.324100
     41 N4         -3.9130    3.4650   -1.1600 n         1 MOL      0.040607
     42 C13        -4.8180    3.2280   -2.2900 c3        1 MOL      0.045278
     43 C14        -6.2770    2.9520   -1.7330 c         1 MOL      0.418974
     44 O6         -7.2600    3.3190   -2.3430 o         1 MOL     -0.503477
     45 C15        -4.3010    2.0050   -3.0810 c3        1 MOL      0.010189
     46 C16        -2.8940    2.2030   -3.5100 c         1 MOL      0.660037
     47 O7         -2.6580    2.7220   -4.6760 o         1 MOL     -0.629605
     48 O8         -1.9860    1.7460   -2.7850 o         1 MOL     -0.629605
     49 H21        -3.5220    2.6580   -0.6970 hn        1 MOL     -0.701129
     50 H22        -4.8650    4.1260   -2.9180 h1        1 MOL      0.077104
     51 H23        -4.9270    1.9590   -3.9680 hc        1 MOL      0.010287
     52 H24        -4.3800    1.1590   -2.3950 hc        1 MOL      0.010287
     53 N5         -6.3930    2.3320   -0.5290 n         1 MOL     -0.351040
     54 C17        -7.7160    1.8520   -0.0000 c3        1 MOL     -0.127608
     55 C18        -8.0240    0.5130   -0.6930 c         1 MOL      0.470719
     56 O9         -9.1820    0.1420   -0.8540 o         1 MOL     -0.574912
     57 H25        -5.5730    1.9060   -0.1040 hn        1 MOL      0.414725
     58 H26        -8.4530    2.6560    0.0280 h1        1 MOL      0.107606
     59 H27        -7.6060    1.5410    1.0380 h1        1 MOL      0.107606
     60 N6         -7.0100   -0.1600   -1.2110 n         1 MOL     -0.065697
     61 C19        -7.1390   -1.5190   -1.8540 c3        1 MOL     -0.046407
     62 C20        -7.0730   -2.7190   -0.8700 c         1 MOL      0.420622
     63 O10        -7.5160   -3.8030   -1.1390 o         1 MOL     -0.537909
     64 C21        -6.0910   -1.7490   -2.9810 c3        1 MOL     -0.196847
     65 C22        -4.6240   -1.6870   -2.5220 c         1 MOL      0.605683
     66 O11        -4.3180   -1.9960   -1.3130 o         1 MOL     -0.699731
     67 O12        -3.7210   -1.2090   -3.2910 o         1 MOL     -0.699731
     68 H28        -6.0800    0.1160   -0.9340 hn        1 MOL      0.051942
     69 H29        -8.0980   -1.6110   -2.3650 h1        1 MOL      0.109818
     70 H30        -6.3240   -0.9500   -3.6800 hc        1 MOL      0.087527
     71 H31        -6.2490   -2.7190   -3.4630 hc        1 MOL      0.087527
     72 N7         -6.5590   -2.4510    0.3300 n         1 MOL     -0.108907
     73 C23        -6.6570   -3.3240    1.5650 c3        1 MOL     -0.120520
     74 C24        -5.3070   -3.9100    1.8690 c         1 MOL      0.643586
     75 O13        -5.1460   -4.8360    2.6620 o         1 MOL     -0.602085
     76 H32        -6.0930   -1.5680    0.4450 hn        1 MOL      0.059813
     77 H33        -7.3270   -4.1670    1.4380 h1        1 MOL      0.080804
     78 H34        -6.9660   -2.7980    2.4720 h1        1 MOL      0.080804
     79 N8         -4.2690   -3.3690    1.1840 n         1 MOL     -0.531643
     80 C25        -2.9340   -4.0470    1.1080 c3        1 MOL     -0.046149
     81 C26        -1.7470   -3.1510    1.1830 c         1 MOL      0.594354
     82 O14        -1.7040   -2.2020    0.4220 o         1 MOL     -0.606403
     83 C27        -2.8870   -4.9920   -0.1100 c3        1 MOL      0.634933
     84 C28        -3.2050   -6.3880    0.2560 c3        1 MOL     -0.519454
     85 O15        -3.6800   -4.4770   -1.1350 oh        1 MOL     -0.743815
     86 H35        -4.4080   -2.4800    0.7160 hn        1 MOL      0.355136
     87 H36        -2.8460   -4.6880    1.9850 h1        1 MOL      0.043269
     88 H37        -1.8400   -4.9330   -0.3960 h1        1 MOL     -0.146446
     89 H38        -3.7930   -3.5380   -0.9900 ho        1 MOL      0.540961
     90 H39        -3.1820   -6.9770   -0.6660 hc        1 MOL      0.133152
     91 H40        -2.4020   -6.7110    0.9210 hc        1 MOL      0.133152
     92 H41        -4.2130   -6.5070    0.6590 hc        1 MOL      0.133152
     93 N9         -0.6920   -3.5240    1.8660 n         1 MOL     -0.545513
     94 C29         0.5510   -2.7840    1.8250 c3        1 MOL      0.176720
     95 C30         1.6730   -3.4450    0.9530 c         1 MOL      0.469078
     96 O16         2.0740   -4.6130    1.1700 o         1 MOL     -0.553315
     97 C31         0.9600   -2.6200    3.2560 c3        1 MOL     -0.075251
     98 C32        -0.0260   -1.5370    3.8380 c3        1 MOL      0.037899
     99 C33         2.4660   -2.1190    3.4730 c3        1 MOL     -0.123351
    100 C34         0.1270   -1.3270    5.3280 c3        1 MOL     -0.321088
    101 H42        -0.8500   -4.2590    2.5430 hn        1 MOL      0.318510
    102 H43         0.4640   -1.7870    1.4010 h1        1 MOL     -0.040912
    103 H44         0.7890   -3.5990    3.7110 hc        1 MOL      0.043906
    104 H45        -1.0580   -1.8210    3.6050 hc        1 MOL      0.067027
    105 H46         0.1160   -0.5860    3.3420 hc        1 MOL      0.067027
    106 H47         3.1730   -2.7660    2.9500 hc        1 MOL      0.032321
    107 H48         2.4760   -1.0540    3.2740 hc        1 MOL      0.032321
    108 H49         2.6650   -2.2320    4.5440 hc        1 MOL      0.032321
    109 H50         0.8310   -0.5310    5.5730 hc        1 MOL      0.077343
    110 H51        -0.8500   -1.0320    5.6880 hc        1 MOL      0.077343
    111 H52         0.4450   -2.2290    5.8520 hc        1 MOL      0.077343
    112 N10         2.2330   -2.6970   -0.0560 n         1 MOL     -0.131952
    113 C35         3.4600   -3.0380   -0.8790 c3        1 MOL     -0.112164
    114 C36         4.7320   -2.6460   -0.0690 c         1 MOL      0.354847
    115 O17         4.7280   -1.9990    0.9780 o         1 MOL     -0.322615
    116 C37         3.4070   -2.2600   -2.2350 c3        1 MOL      0.164213
    117 C38         2.3900   -2.7590   -3.2430 c3        1 MOL     -0.126474
    118 O18         3.2600   -0.9240   -1.9960 oh        1 MOL     -0.455622
    119 H53         1.7260   -1.8390   -0.2030 hn        1 MOL      0.166708
    120 H54         3.5880   -4.1130   -0.9990 h1        1 MOL      0.094876
    121 H55         4.3210   -2.4160   -2.8070 h1        1 MOL      0.045063
    122 H56         2.4110   -0.9350   -1.5580 ho        1 MOL      0.240997
    123 H57         1.4140   -2.7990   -2.7510 hc        1 MOL      0.040576
    124 H58         2.4100   -2.0470   -4.0720 hc        1 MOL      0.040576
    125 H59         2.7320   -3.6820   -3.7100 hc        1 MOL      0.040576
    126 N11         5.8880   -2.9590   -0.6130 n         1 MOL     -0.282749
    127 C39         7.2260   -2.6720   -0.0310 c3        1 MOL     -0.025518
    128 C40         7.4040   -1.1990    0.0850 c         1 MOL      0.174950
    129 O19         7.8830   -0.7160    1.1500 o         1 MOL     -0.469517
    130 C41         8.3160   -3.3500   -0.8530 c3        1 MOL      0.242979
    131 C42         8.3250   -4.8450   -0.7860 c3        1 MOL     -0.380112
    132 O20         8.1320   -2.9940   -2.2360 oh        1 MOL     -0.651577
    133 H60         5.8880   -3.4900   -1.4620 hn        1 MOL      0.265229
    134 H61         7.2150   -3.1380    0.9470 h1        1 MOL      0.134579
    135 H62         9.2700   -3.0060   -0.4610 h1        1 MOL      0.076113
    136 H63         8.9220   -3.2090   -2.7380 ho        1 MOL      0.420442
    137 H64         9.3300   -5.2360   -0.9330 hc        1 MOL      0.115946
    138 H65         8.0330   -5.1970    0.2100 hc        1 MOL      0.115946
    139 H66         7.5170   -5.2290   -1.4090 hc        1 MOL      0.115946
    140 N12         7.1020   -0.4060   -0.9200 n         1 MOL     -0.014233
    141 C43         7.1440    1.0610   -0.8460 c3        1 MOL      0.082978
    142 C44         6.1750    1.6010    0.2270 c         1 MOL      0.374795
    143 O21         6.5700    2.6090    0.7810 o         1 MOL     -0.505793
    144 C45         6.7130    1.7150   -2.1880 c3        1 MOL     -0.187174
    145 C46         7.5050    1.1850   -3.4320 c3        1 MOL     -0.154918
    146 C47         9.0780    1.2530   -3.3340 c3        1 MOL     -0.055244
    147 C48         9.7910    2.5450   -2.9550 c3        1 MOL      0.239623
    148 N13        11.2230    2.6400   -3.3950 n4        1 MOL     -0.435785
    149 H67         6.9860   -0.8570   -1.8150 hn        1 MOL      0.185963
    150 H68         8.1460    1.4240   -0.6070 h1        1 MOL      0.044089
    151 H69         6.8980    2.7770   -2.0360 hc        1 MOL      0.087619
    152 H70         5.6650    1.4610   -2.3490 hc        1 MOL      0.087619
    153 H71         7.3210    1.7500   -4.3530 hc        1 MOL      0.093433
    154 H72         7.2140    0.1510   -3.5470 hc        1 MOL      0.093433
    155 H73         9.5360    0.9890   -4.2940 hc        1 MOL      0.009543
    156 H74         9.3950    0.4970   -2.6140 hc        1 MOL      0.009543
    157 H75         9.5640    2.8250   -1.9280 hx        1 MOL      0.035048
    158 H76         9.2560    3.3440   -3.4570 hx        1 MOL      0.035048
    159 H77        11.7710    1.8730   -3.0420 hn        1 MOL      0.297890
    160 H78        11.3720    2.6090   -4.3850 hn        1 MOL      0.297890
    161 H79        11.5970    3.4710   -2.9440 hn        1 MOL      0.297890
    162 N14         4.9960    0.9810    0.4420 n         1 MOL     -0.155750
    163 C49         4.0600    1.3830    1.5260 c3        1 MOL     -0.146013
    164 C50         4.6170    1.0480    2.8880 c         1 MOL      0.514893
    165 O22         4.5860    1.8920    3.7750 o         1 MOL     -0.570378
    166 C51         2.6220    0.8430    1.3170 c3        1 MOL      0.193991
    167 C52         1.8310    1.4950    0.1630 c3        1 MOL      0.098890
    168 C53         0.6080    0.6760   -0.2490 c         1 MOL      0.578292
    169 O23         0.7000   -0.4700   -0.6980 o         1 MOL     -0.645868
    170 O24        -0.4850    1.1560   -0.0010 o         1 MOL     -0.645868
    171 H80         4.8510    0.0560    0.0580 hn        1 MOL     -0.028311
    172 H81         4.0230    2.4670    1.4850 h1        1 MOL      0.080951
    173 H82         2.0750    0.8860    2.2530 hc        1 MOL      0.023002
    174 H83         2.6020   -0.2070    1.0230 hc        1 MOL      0.023002
    175 H84         2.4590    1.5880   -0.7200 hc        1 MOL     -0.045878
    176 H85         1.6670    2.5150    0.5010 hc        1 MOL     -0.045878
    177 N15         5.0900   -0.2040    3.1140 n         1 MOL     -0.082432
    178 C54         5.7530   -0.7520    4.3000 c3        1 MOL     -0.216821
    179 H86         5.9980    0.0580    4.9860 h1        1 MOL      0.083782
    180 H87         5.0870   -1.4580    4.7950 h1        1 MOL      0.083782
    181 H88         6.6690   -1.2640    4.0010 h1        1 MOL      0.083782
    182 H89         5.1190   -0.8920    2.3690 hn        1 MOL      0.143097
    183 Ca1        -1.9040   -0.4880   -1.4480 Ca        1 MOL      1.770097
    184 O25        -0.0580   -0.4710   -3.2400 oh        1 MOL     -0.780158
    185 H90         0.8880   -0.5490   -3.1590 ho        1 MOL      0.384044
    186 H91        -0.2020   -0.2320   -4.1570 ho        1 MOL      0.384044
    187 O26        -1.2930   -3.0970   -2.5080 oh        1 MOL     -0.780158
    188 H92        -1.6710   -3.8050   -1.9880 ho        1 MOL      0.384044
    189 H93        -1.6490   -3.2180   -3.3820 ho        1 MOL      0.384044
@<TRIPOS>BOND
     1    1    2 1   
     2    1    4 1   
     3    1    5 1   
     4    1    6 1   
     5    2    3 2   
     6    2    7 1   
     7    7    8 1   
     8    7   15 1   
     9    8    9 1   
    10    8   11 1   
    11    8   16 1   
    12    9   10 2   
    13    9   19 1   
    14   11   12 1   
    15   11   17 1   
    16   11   18 1   
    17   12   13 1   
    18   12   14 1   
    19   19   20 1   
    20   19   28 1   
    21   20   21 1   
    22   20   23 1   
    23   20   29 1   
    24   21   22 2   
    25   21   41 1   
    26   23   24 1   
    27   23   30 1   
    28   23   31 1   
    29   24   25 1   
    30   24   32 1   
    31   24   33 1   
    32   25   26 1   
    33   25   34 1   
    34   25   35 1   
    35   26   27 1   
    36   26   36 1   
    37   26   37 1   
    38   27   38 1   
    39   27   39 1   
    40   27   40 1   
    41   41   42 1   
    42   41   49 1   
    43   42   43 1   
    44   42   45 1   
    45   42   50 1   
    46   43   44 2   
    47   43   53 1   
    48   45   46 1   
    49   45   51 1   
    50   45   52 1   
    51   46   47 1   
    52   46   48 1   
    53   53   54 1   
    54   53   57 1   
    55   54   55 1   
    56   54   58 1   
    57   54   59 1   
    58   55   56 2   
    59   55   60 1   
    60   60   61 1   
    61   60   68 1   
    62   61   62 1   
    63   61   64 1   
    64   61   69 1   
    65   62   63 2   
    66   62   72 1   
    67   64   65 1   
    68   64   70 1   
    69   64   71 1   
    70   65   66 1   
    71   65   67 1   
    72   72   73 1   
    73   72   76 1   
    74   73   74 1   
    75   73   77 1   
    76   73   78 1   
    77   74   75 2   
    78   74   79 1   
    79   79   80 1   
    80   79   86 1   
    81   80   81 1   
    82   80   83 1   
    83   80   87 1   
    84   81   82 2   
    85   81   93 1   
    86   83   84 1   
    87   83   85 1   
    88   83   88 1   
    89   84   90 1   
    90   84   91 1   
    91   84   92 1   
    92   85   89 1   
    93   93   94 1   
    94   93  101 1   
    95   94   95 1   
    96   94   97 1   
    97   94  102 1   
    98   95   96 2   
    99   95  112 1   
   100   97   98 1   
   101   97   99 1   
   102   97  103 1   
   103   98  100 1   
   104   98  104 1   
   105   98  105 1   
   106   99  106 1   
   107   99  107 1   
   108   99  108 1   
   109  100  109 1   
   110  100  110 1   
   111  100  111 1   
   112  112  113 1   
   113  112  119 1   
   114  113  114 1   
   115  113  116 1   
   116  113  120 1   
   117  114  115 2   
   118  114  126 1   
   119  116  117 1   
   120  116  118 1   
   121  116  121 1   
   122  117  123 1   
   123  117  124 1   
   124  117  125 1   
   125  118  122 1   
   126  126  127 1   
   127  126  133 1   
   128  127  128 1   
   129  127  130 1   
   130  127  134 1   
   131  128  129 2   
   132  128  140 1   
   133  130  131 1   
   134  130  132 1   
   135  130  135 1   
   136  131  137 1   
   137  131  138 1   
   138  131  139 1   
   139  132  136 1   
   140  140  141 1   
   141  140  149 1   
   142  141  142 1   
   143  141  144 1   
   144  141  150 1   
   145  142  143 2   
   146  142  162 1   
   147  144  145 1   
   148  144  151 1   
   149  144  152 1   
   150  145  146 1   
   151  145  153 1   
   152  145  154 1   
   153  146  147 1   
   154  146  155 1   
   155  146  156 1   
   156  147  148 1   
   157  147  157 1   
   158  147  158 1   
   159  148  159 1   
   160  148  160 1   
   161  148  161 1   
   162  162  163 1   
   163  162  171 1   
   164  163  164 1   
   165  163  166 1   
   166  163  172 1   
   167  164  165 2   
   168  164  177 1   
   169  166  167 1   
   170  166  173 1   
   171  166  174 1   
   172  167  168 1   
   173  167  175 1   
   174  167  176 1   
   175  168  169 1   
   176  168  170 1   
   177  177  178 1   
   178  177  182 1   
   179  178  179 1   
   180  178  180 1   
   181  178  181 1   
   182  184  185 1   
   183  184  186 1   
   184  187  188 1   
   185  187  189 1   
@<TRIPOS>SUBSTRUCTURE
     1 MOL         1 TEMP              0 ****  ****    0 ROOT
