@<TRIPOS>MOLECULE
MOL
  189   185     1     0     0
SMALL
resp


@<TRIPOS>ATOM
      1 C1         -0.4250    3.3120    5.5100 c3        1 MOL     -0.297422
      2 C2         -0.7040    2.6590    4.1570 c         1 MOL      0.800173
      3 O1          0.2010    2.7500    3.2980 o         1 MOL     -0.635425
      4 H1         -1.0240    2.8240    6.2790 hc        1 MOL      0.070203
      5 H2          0.6320    3.2080    5.7540 hc        1 MOL      0.070203
      6 H3         -0.6860    4.3690    5.4640 hc        1 MOL      0.070203
      7 N1         -1.8960    2.0900    3.8840 n         1 MOL     -0.787889
      8 C3         -2.4820    1.7810    2.5980 c3        1 MOL      0.361594
      9 C4         -2.7750    3.1340    1.9090 c         1 MOL      0.412960
     10 O2         -3.5700    3.8950    2.4210 o         1 MOL     -0.589120
     11 C5         -3.6070    0.7400    2.6080 c3        1 MOL     -0.286284
     12 C6         -3.9180    0.3780    1.1430 c         1 MOL      0.863804
     13 O3         -4.7880   -0.5100    0.9740 o         1 MOL     -0.654410
     14 O4         -3.3470    0.9780    0.1570 o         1 MOL     -0.654410
     15 H4         -2.5080    2.0320    4.6840 hn        1 MOL      0.362348
     16 H5         -1.8080    1.2300    1.9400 h1        1 MOL     -0.014499
     17 H6         -4.5440    1.1070    3.0240 hc        1 MOL      0.063434
     18 H7         -3.1490   -0.1430    3.0640 hc        1 MOL      0.063434
     19 N2         -2.2520    3.4080    0.7430 n         1 MOL      0.007275
     20 C7         -2.4010    4.6550    0.0700 c3        1 MOL     -0.004524
     21 C8         -3.3160    4.7170   -1.1400 c         1 MOL      0.429866
     22 O5         -3.9060    5.7840   -1.3780 o         1 MOL     -0.579781
     23 C9         -1.0420    5.0820   -0.3750 c3        1 MOL     -0.014185
     24 C10        -0.0310    5.4080    0.7430 c3        1 MOL     -0.020851
     25 C11        -0.4410    6.4680    1.7220 c3        1 MOL     -0.014589
     26 C12         0.7810    6.8470    2.5850 c3        1 MOL     -0.015897
     27 N3          0.3750    7.4020    3.8640 n4        1 MOL     -0.401299
     28 H8         -1.7560    2.6640    0.2890 hn        1 MOL     -0.047362
     29 H9         -2.7750    5.4840    0.6890 h1        1 MOL      0.043293
     30 H10        -1.1400    6.0040   -0.9500 hc        1 MOL      0.020792
     31 H11        -0.6220    4.4060   -1.1210 hc        1 MOL      0.020792
     32 H12         0.9010    5.7170    0.2700 hc        1 MOL      0.019832
     33 H13         0.2620    4.5100    1.2970 hc        1 MOL      0.019832
     34 H14        -1.1440    6.0590    2.4430 hc        1 MOL      0.032801
     35 H15        -0.9370    7.3280    1.2670 hc        1 MOL      0.032801
     36 H16         1.3530    7.6050    2.0550 hx        1 MOL      0.096188
     37 H17         1.2650    5.8890    2.7740 hx        1 MOL      0.096188
     38 H18        -0.1180    8.2610    3.7140 hn        1 MOL      0.340661
     39 H19        -0.2100    6.7030    4.3100 hn        1 MOL      0.340661
     40 H20         1.2110    7.6420    4.3660 hn        1 MOL      0.340661
     41 N4         -3.5330    3.6510   -1.8770 n         1 MOL     -0.215485
     42 C13        -4.5660    3.5710   -2.9780 c3        1 MOL     -0.057424
     43 C14        -5.7750    2.7030   -2.5300 c         1 MOL      0.486477
     44 O6         -6.7780    2.7200   -3.2390 o         1 MOL     -0.504500
     45 C15        -3.8130    3.0930   -4.2350 c3        1 MOL     -0.081997
     46 C16        -2.9670    1.8580   -4.0280 c         1 MOL      0.726380
     47 O7         -2.2990    1.3900   -5.0320 o         1 MOL     -0.721552
     48 O8         -2.9450    1.2560   -2.9160 o         1 MOL     -0.721552
     49 H21        -3.0170    2.8090   -1.6380 hn        1 MOL      0.171367
     50 H22        -4.9090    4.5920   -3.1370 h1        1 MOL      0.111924
     51 H23        -3.1860    3.9270   -4.5580 hc        1 MOL      0.036874
     52 H24        -4.5540    2.9660   -5.0260 hc        1 MOL      0.036874
     53 N5         -5.7900    2.0710   -1.3110 n         1 MOL     -0.164209
     54 C17        -7.0440    1.5930   -0.7670 c3        1 MOL     -0.213914
     55 C18        -7.4620    0.3200   -1.4200 c         1 MOL      0.567357
     56 O9         -8.5820    0.1880   -1.9140 o         1 MOL     -0.577371
     57 H25        -5.0320    1.9740   -0.6450 hn        1 MOL      0.132589
     58 H26        -7.7960    2.3700   -0.9470 h1        1 MOL      0.098614
     59 H27        -7.0680    1.4800    0.3140 h1        1 MOL      0.098614
     60 N6         -6.6430   -0.7400   -1.3310 n         1 MOL     -0.194974
     61 C19        -6.8590   -2.0460   -1.8490 c3        1 MOL     -0.049907
     62 C20        -6.8270   -3.1100   -0.7130 c         1 MOL      0.432962
     63 O10        -6.7860   -4.3210   -0.9920 o         1 MOL     -0.483458
     64 C21        -5.8550   -2.3290   -2.9220 c3        1 MOL     -0.029526
     65 C22        -4.3670   -2.0620   -2.6030 c         1 MOL      0.541507
     66 O11        -3.8640   -2.3160   -1.5160 o         1 MOL     -0.603175
     67 O12        -3.5860   -1.5670   -3.4090 o         1 MOL     -0.603175
     68 H28        -5.8130   -0.5460   -0.7810 hn        1 MOL      0.032470
     69 H29        -7.8650   -2.1150   -2.2680 h1        1 MOL      0.108295
     70 H30        -6.1450   -1.6470   -3.7240 hc        1 MOL      0.038974
     71 H31        -6.0050   -3.2880   -3.4060 hc        1 MOL      0.038974
     72 N7         -6.7820   -2.5720    0.5890 n         1 MOL     -0.397026
     73 C23        -6.7120   -3.2890    1.8490 c3        1 MOL     -0.151821
     74 C24        -5.3300   -3.8460    2.1290 c         1 MOL      0.616624
     75 O13        -5.2920   -4.7640    2.8770 o         1 MOL     -0.584811
     76 H32        -6.5840   -1.5830    0.6300 hn        1 MOL      0.268302
     77 H33        -7.4290   -4.1080    1.7850 h1        1 MOL      0.107353
     78 H34        -6.9140   -2.6390    2.7040 h1        1 MOL      0.107353
     79 N8         -4.2670   -3.4080    1.4250 n         1 MOL     -0.327659
     80 C25        -3.0220   -4.0950    1.3380 c3        1 MOL     -0.169480
     81 C26        -1.8300   -3.1330    1.2750 c         1 MOL      0.754218
     82 O14        -1.9140   -2.0510    0.6280 o         1 MOL     -0.716874
     83 C27        -2.9410   -5.1870    0.2100 c3        1 MOL      0.760014
     84 C28        -3.0700   -6.6620    0.6200 c3        1 MOL     -0.315924
     85 O15        -3.6230   -4.9010   -1.0010 oh        1 MOL     -0.804190
     86 H35        -4.2730   -2.4920    0.9850 hn        1 MOL      0.193073
     87 H36        -2.8510   -4.7590    2.1890 h1        1 MOL      0.021407
     88 H37        -1.8770   -5.1490   -0.0500 h1        1 MOL     -0.184243
     89 H38        -3.7260   -3.9660   -1.1550 ho        1 MOL      0.542127
     90 H39        -4.0810   -6.9470    0.9140 hc        1 MOL      0.069145
     91 H40        -2.8190   -7.3930   -0.1560 hc        1 MOL      0.069145
     92 H41        -2.4040   -6.8720    1.4580 hc        1 MOL      0.069145
     93 N9         -0.6690   -3.4890    1.8240 n         1 MOL     -0.609860
     94 C29         0.5340   -2.7190    1.9950 c3        1 MOL      0.052175
     95 C30         1.6750   -3.2390    1.1580 c         1 MOL      0.687825
     96 O16         1.9290   -4.4280    1.2440 o         1 MOL     -0.595041
     97 C31         0.7840   -2.4640    3.5760 c3        1 MOL     -0.097104
     98 C32        -0.3200   -1.5500    4.2550 c3        1 MOL      0.176287
     99 C33         2.1890   -1.8520    3.7780 c3        1 MOL     -0.159466
    100 C34        -0.1860   -1.3220    5.7620 c3        1 MOL     -0.327461
    101 H42        -0.6770   -4.4190    2.2320 hn        1 MOL      0.319703
    102 H43         0.3060   -1.7510    1.5360 h1        1 MOL      0.070265
    103 H44         0.6180   -3.4470    4.0120 hc        1 MOL      0.052540
    104 H45        -1.3220   -1.9090    3.9910 hc        1 MOL      0.001930
    105 H46        -0.2720   -0.5780    3.7600 hc        1 MOL      0.001930
    106 H47         2.5380   -2.0480    4.7870 hc        1 MOL      0.037375
    107 H48         2.9860   -2.2880    3.1800 hc        1 MOL      0.037375
    108 H49         2.1520   -0.8020    3.5130 hc        1 MOL      0.037375
    109 H50        -0.0200   -2.2570    6.2920 hc        1 MOL      0.082829
    110 H51         0.6500   -0.6460    5.9320 hc        1 MOL      0.082829
    111 H52        -1.1340   -0.9360    6.1230 hc        1 MOL      0.082829
    112 N10         2.2450   -2.4510    0.2660 n         1 MOL     -0.247823
    113 C35         3.5060   -2.8050   -0.4490 c3        1 MOL     -0.096086
    114 C36         4.7160   -2.5260    0.3900 c         1 MOL      0.335990
    115 O17         4.7270   -1.9030    1.4070 o         1 MOL     -0.287718
    116 C37         3.6120   -2.0630   -1.8100 c3        1 MOL      0.195613
    117 C38         2.3960   -2.3720   -2.7490 c3        1 MOL     -0.433684
    118 O18         3.5330   -0.6920   -1.6340 oh        1 MOL     -0.459490
    119 H53         1.9280   -1.4900    0.3260 hn        1 MOL      0.033162
    120 H54         3.3700   -3.8560   -0.6670 h1        1 MOL      0.101814
    121 H55         4.4730   -2.4230   -2.3720 h1        1 MOL      0.055744
    122 H56         2.6110   -0.4440   -1.5770 ho        1 MOL      0.343079
    123 H57         2.6430   -1.9810   -3.7450 hc        1 MOL      0.130770
    124 H58         2.1600   -3.4280   -2.7940 hc        1 MOL      0.130770
    125 H59         1.5450   -1.8340   -2.3380 hc        1 MOL      0.130770
    126 N11         5.8880   -3.0090   -0.1210 n         1 MOL     -0.298639
    127 C39         7.2420   -2.5520    0.3080 c3        1 MOL     -0.283790
    128 C40         7.5440   -1.0870    0.0320 c         1 MOL      0.248124
    129 O19         8.3480   -0.4300    0.7530 o         1 MOL     -0.448993
    130 C41         8.3840   -3.3520   -0.3450 c3        1 MOL      0.486396
    131 C42         8.4040   -4.8540   -0.1020 c3        1 MOL     -0.359195
    132 O20         8.5920   -3.1030   -1.7790 oh        1 MOL     -0.651642
    133 H60         5.8280   -3.6670   -0.8940 hn        1 MOL      0.272364
    134 H61         7.2840   -2.7090    1.3850 h1        1 MOL      0.193987
    135 H62         9.3430   -3.0990    0.1150 h1        1 MOL     -0.000340
    136 H63         9.5460   -3.1420   -1.8540 ho        1 MOL      0.398234
    137 H64         7.5330   -5.3400   -0.5330 hc        1 MOL      0.093356
    138 H65         9.3030   -5.2910   -0.5390 hc        1 MOL      0.093356
    139 H66         8.3070   -4.9390    0.9750 hc        1 MOL      0.093356
    140 N12         6.8650   -0.4560   -0.9570 n         1 MOL     -0.168034
    141 C43         6.8070    1.0140   -1.1100 c3        1 MOL      0.005654
    142 C44         6.0120    1.7120    0.0160 c         1 MOL      0.261936
    143 O21         6.4380    2.7700    0.6250 o         1 MOL     -0.520836
    144 C45         6.2830    1.3870   -2.4660 c3        1 MOL     -0.113494
    145 C46         7.1870    0.8970   -3.5690 c3        1 MOL      0.031197
    146 C47         8.4260    1.7100   -3.8820 c3        1 MOL      0.022930
    147 C48         8.9010    1.5550   -5.3290 c3        1 MOL     -0.012910
    148 N13        10.1400    2.3620   -5.5830 n4        1 MOL     -0.254400
    149 H67         6.2650   -1.0550   -1.5170 hn        1 MOL      0.252933
    150 H68         7.8380    1.3670   -1.0410 h1        1 MOL      0.072498
    151 H69         6.1830    2.4740   -2.5260 hc        1 MOL      0.059858
    152 H70         5.2820    0.9760   -2.6280 hc        1 MOL      0.059858
    153 H71         6.5500    0.9100   -4.4550 hc        1 MOL     -0.001679
    154 H72         7.4080   -0.1540   -3.3840 hc        1 MOL     -0.001679
    155 H73         9.2900    1.4000   -3.2860 hc        1 MOL      0.030796
    156 H74         8.2400    2.7540   -3.6360 hc        1 MOL      0.030796
    157 H75         8.1440    1.8180   -6.0680 hx        1 MOL      0.088337
    158 H76         9.0780    0.4820   -5.3480 hx        1 MOL      0.088337
    159 H77        10.8360    2.3180   -4.8610 hn        1 MOL      0.272566
    160 H78        10.3700    2.1410   -6.5420 hn        1 MOL      0.272566
    161 H79         9.9560    3.3520   -5.6270 hn        1 MOL      0.272566
    162 N14         4.9350    1.1500    0.4650 n         1 MOL      0.089793
    163 C49         4.1140    1.6850    1.5590 c3        1 MOL     -0.254181
    164 C50         4.6620    1.3510    3.0070 c         1 MOL      0.502207
    165 O22         4.5080    2.1090    3.9870 o         1 MOL     -0.548175
    166 C51         2.7240    1.1280    1.2600 c3        1 MOL      0.260018
    167 C52         1.9630    1.8670    0.1140 c3        1 MOL      0.043767
    168 C53         0.7430    1.1360   -0.4960 c         1 MOL      0.538865
    169 O23         0.8270   -0.0940   -0.6060 o         1 MOL     -0.594334
    170 O24        -0.3440    1.7520   -0.7980 o         1 MOL     -0.594334
    171 H80         4.5490    0.3330    0.0020 hn        1 MOL      0.049280
    172 H81         3.9960    2.7650    1.4780 h1        1 MOL      0.100017
    173 H82         2.1260    1.1030    2.1700 hc        1 MOL      0.006726
    174 H83         2.8320    0.1010    0.9410 hc        1 MOL      0.006726
    175 H84         2.7380    2.0260   -0.6280 hc        1 MOL     -0.044407
    176 H85         1.7060    2.8360    0.5600 hc        1 MOL     -0.044407
    177 N15         5.4030    0.2570    3.1250 n         1 MOL     -0.191584
    178 C54         5.8570   -0.3220    4.4250 c3        1 MOL     -0.275940
    179 H86         4.9990   -0.7350    4.9570 h1        1 MOL      0.112395
    180 H87         6.5830   -1.1130    4.2370 h1        1 MOL      0.112395
    181 H88         6.3170    0.4590    5.0300 h1        1 MOL      0.112395
    182 H89         5.4400   -0.4280    2.3840 hn        1 MOL      0.196376
    183 Ca1        -1.7850   -0.4270   -1.5240 Ca        1 MOL      1.757787
    184 O25        -0.3940   -0.0400   -3.7540 oh        1 MOL     -0.910974
    185 H90        -0.9690    0.5420   -4.2520 ho        1 MOL      0.425247
    186 H91        -0.0020   -0.6090   -4.4140 ho        1 MOL      0.425247
    187 O26        -0.7700   -2.8340   -2.4450 oh        1 MOL     -0.910974
    188 H92        -0.9890   -3.5860   -1.8930 ho        1 MOL      0.425247
    189 H93        -0.4290   -3.2280   -3.2510 ho        1 MOL      0.425247
@<TRIPOS>BOND
     1    1    2 1   
     2    1    4 1   
     3    1    5 1   
     4    1    6 1   
     5    2    3 2   
     6    2    7 1   
     7    7    8 1   
     8    7   15 1   
     9    8    9 1   
    10    8   11 1   
    11    8   16 1   
    12    9   10 2   
    13    9   19 1   
    14   11   12 1   
    15   11   17 1   
    16   11   18 1   
    17   12   13 1   
    18   12   14 1   
    19   19   20 1   
    20   19   28 1   
    21   20   21 1   
    22   20   23 1   
    23   20   29 1   
    24   21   22 2   
    25   21   41 1   
    26   23   24 1   
    27   23   30 1   
    28   23   31 1   
    29   24   25 1   
    30   24   32 1   
    31   24   33 1   
    32   25   26 1   
    33   25   34 1   
    34   25   35 1   
    35   26   27 1   
    36   26   36 1   
    37   26   37 1   
    38   27   38 1   
    39   27   39 1   
    40   27   40 1   
    41   41   42 1   
    42   41   49 1   
    43   42   43 1   
    44   42   45 1   
    45   42   50 1   
    46   43   44 2   
    47   43   53 1   
    48   45   46 1   
    49   45   51 1   
    50   45   52 1   
    51   46   47 1   
    52   46   48 1   
    53   53   54 1   
    54   53   57 1   
    55   54   55 1   
    56   54   58 1   
    57   54   59 1   
    58   55   56 2   
    59   55   60 1   
    60   60   61 1   
    61   60   68 1   
    62   61   62 1   
    63   61   64 1   
    64   61   69 1   
    65   62   63 2   
    66   62   72 1   
    67   64   65 1   
    68   64   70 1   
    69   64   71 1   
    70   65   66 1   
    71   65   67 1   
    72   72   73 1   
    73   72   76 1   
    74   73   74 1   
    75   73   77 1   
    76   73   78 1   
    77   74   75 2   
    78   74   79 1   
    79   79   80 1   
    80   79   86 1   
    81   80   81 1   
    82   80   83 1   
    83   80   87 1   
    84   81   82 2   
    85   81   93 1   
    86   83   84 1   
    87   83   85 1   
    88   83   88 1   
    89   84   90 1   
    90   84   91 1   
    91   84   92 1   
    92   85   89 1   
    93   93   94 1   
    94   93  101 1   
    95   94   95 1   
    96   94   97 1   
    97   94  102 1   
    98   95   96 2   
    99   95  112 1   
   100   97   98 1   
   101   97   99 1   
   102   97  103 1   
   103   98  100 1   
   104   98  104 1   
   105   98  105 1   
   106   99  106 1   
   107   99  107 1   
   108   99  108 1   
   109  100  109 1   
   110  100  110 1   
   111  100  111 1   
   112  112  113 1   
   113  112  119 1   
   114  113  114 1   
   115  113  116 1   
   116  113  120 1   
   117  114  115 2   
   118  114  126 1   
   119  116  117 1   
   120  116  118 1   
   121  116  121 1   
   122  117  123 1   
   123  117  124 1   
   124  117  125 1   
   125  118  122 1   
   126  126  127 1   
   127  126  133 1   
   128  127  128 1   
   129  127  130 1   
   130  127  134 1   
   131  128  129 2   
   132  128  140 1   
   133  130  131 1   
   134  130  132 1   
   135  130  135 1   
   136  131  137 1   
   137  131  138 1   
   138  131  139 1   
   139  132  136 1   
   140  140  141 1   
   141  140  149 1   
   142  141  142 1   
   143  141  144 1   
   144  141  150 1   
   145  142  143 2   
   146  142  162 1   
   147  144  145 1   
   148  144  151 1   
   149  144  152 1   
   150  145  146 1   
   151  145  153 1   
   152  145  154 1   
   153  146  147 1   
   154  146  155 1   
   155  146  156 1   
   156  147  148 1   
   157  147  157 1   
   158  147  158 1   
   159  148  159 1   
   160  148  160 1   
   161  148  161 1   
   162  162  163 1   
   163  162  171 1   
   164  163  164 1   
   165  163  166 1   
   166  163  172 1   
   167  164  165 2   
   168  164  177 1   
   169  166  167 1   
   170  166  173 1   
   171  166  174 1   
   172  167  168 1   
   173  167  175 1   
   174  167  176 1   
   175  168  169 1   
   176  168  170 1   
   177  177  178 1   
   178  177  182 1   
   179  178  179 1   
   180  178  180 1   
   181  178  181 1   
   182  184  185 1   
   183  184  186 1   
   184  187  188 1   
   185  187  189 1   
@<TRIPOS>SUBSTRUCTURE
     1 MOL         1 TEMP              0 ****  ****    0 ROOT
