@<TRIPOS>MOLECULE
MOL
  183   181     1     0     0
SMALL
resp


@<TRIPOS>ATOM
      1 C1         -0.8910    0.9220    6.5800 c3        1 MOL     -0.315086
      2 C2         -1.2580    1.0530    5.1050 c         1 MOL      0.781256
      3 O1         -0.5210    1.7220    4.3780 o         1 MOL     -0.586028
      4 H1         -0.7800    1.9150    7.0160 hc        1 MOL      0.064265
      5 H2         -1.6790    0.3820    7.1050 hc        1 MOL      0.064265
      6 H3          0.0480    0.3770    6.6750 hc        1 MOL      0.064265
      7 N1         -2.4040    0.5060    4.6860 n         1 MOL     -0.650286
      8 C3         -2.9790    0.8600    3.3850 c3        1 MOL      0.204295
      9 C4         -3.3420    2.3610    3.1320 c         1 MOL      0.560374
     10 O2         -3.6800    3.0290    4.0460 o         1 MOL     -0.609190
     11 C5         -4.1670   -0.1510    3.1380 c3        1 MOL     -0.049694
     12 C6         -4.6890   -0.1100    1.7260 c         1 MOL      0.604816
     13 O3         -5.8710   -0.3010    1.5920 o         1 MOL     -0.604829
     14 O4         -4.0340    0.3390    0.7580 o         1 MOL     -0.604829
     15 H4         -2.8210   -0.1540    5.3210 hn        1 MOL      0.331485
     16 H5         -2.1580    0.7400    2.6750 h1        1 MOL      0.010228
     17 H6         -4.9880    0.1580    3.7830 hc        1 MOL     -0.006923
     18 H7         -3.9770   -1.1220    3.5770 hc        1 MOL     -0.006923
     19 N2         -3.0260    2.8680    1.9270 n         1 MOL     -0.252850
     20 C7         -3.0580    4.3060    1.6010 c3        1 MOL      0.041398
     21 C8         -3.7940    4.4800    0.3210 c         1 MOL      0.409810
     22 O5         -4.7660    5.2120    0.3160 o         1 MOL     -0.583667
     23 C9         -1.5770    4.8760    1.6550 c3        1 MOL      0.224864
     24 C10        -1.1650    5.0860    3.1290 c3        1 MOL      0.256938
     25 C11        -1.3490    6.1710    0.8570 c3        1 MOL     -0.417019
     26 C12         0.2500    5.5890    3.4190 c3        1 MOL     -0.313280
     27 H8         -2.5730    2.2190    1.2960 hn        1 MOL      0.133785
     28 H9         -3.5820    4.7960    2.4260 h1        1 MOL      0.042678
     29 H10        -0.8220    4.1590    1.3240 hc        1 MOL      0.011126
     30 H11        -1.2950    4.1720    3.7060 hc        1 MOL     -0.069431
     31 H12        -1.8440    5.8330    3.5450 hc        1 MOL     -0.069431
     32 H13        -2.0360    6.9360    1.2130 hc        1 MOL      0.081213
     33 H14        -0.3460    6.5810    1.0110 hc        1 MOL      0.081213
     34 H15        -1.4200    5.9050   -0.1940 hc        1 MOL      0.081213
     35 H16         0.3520    5.5510    4.5000 hc        1 MOL      0.061947
     36 H17         0.9790    4.8650    3.0370 hc        1 MOL      0.061947
     37 H18         0.6100    6.5700    3.0880 hc        1 MOL      0.061947
     38 N3         -3.3320    3.9380   -0.8070 n         1 MOL     -0.169660
     39 C13        -3.9940    4.0850   -2.1290 c3        1 MOL     -0.089490
     40 C14        -5.2520    3.2450   -2.2140 c         1 MOL      0.420305
     41 O6         -6.0340    3.4580   -3.1660 o         1 MOL     -0.541247
     42 C15        -3.0300    3.8350   -3.2920 c3        1 MOL     -0.238656
     43 C16        -2.2560    2.4880   -3.2050 c         1 MOL      0.823157
     44 O7         -2.5230    1.6690   -2.3210 o         1 MOL     -0.687437
     45 O8         -1.4970    2.2660   -4.1320 o         1 MOL     -0.687437
     46 H19        -2.5310    3.3320   -0.7090 hn        1 MOL      0.200989
     47 H20        -4.2010    5.1480   -2.2900 h1        1 MOL      0.106969
     48 H21        -2.2280    4.5630   -3.2790 hc        1 MOL      0.071774
     49 H22        -3.5670    3.8930   -4.2410 hc        1 MOL      0.071774
     50 N4         -5.5950    2.3710   -1.2170 n         1 MOL      0.096348
     51 C17        -7.0070    1.9580   -0.8690 c3        1 MOL     -0.338569
     52 C18        -7.4940    0.7410   -1.6190 c         1 MOL      0.736656
     53 O9         -8.2920    0.8410   -2.5320 o         1 MOL     -0.590402
     54 H23        -4.8290    1.9670   -0.7020 hn        1 MOL     -0.008961
     55 H24        -7.7560    2.7490   -0.9510 h1        1 MOL      0.110110
     56 H25        -6.9050    1.7830    0.2040 h1        1 MOL      0.110110
     57 N5         -7.0560   -0.4850   -1.2550 n         1 MOL     -0.609421
     58 C19        -7.2070   -1.7320   -1.9880 c3        1 MOL      0.338369
     59 C20        -7.2880   -2.9550   -0.9350 c         1 MOL      0.265844
     60 O10        -7.7530   -4.0670   -1.2840 o         1 MOL     -0.535470
     61 C21        -6.0990   -1.9100   -3.0680 c3        1 MOL     -0.376209
     62 C22        -4.6930   -1.6150   -2.5290 c         1 MOL      0.687727
     63 O11        -3.9170   -0.8910   -3.1620 o         1 MOL     -0.672982
     64 O12        -4.3540   -2.0030   -1.3800 o         1 MOL     -0.672982
     65 H26        -6.3370   -0.4870   -0.5480 hn        1 MOL      0.259598
     66 H27        -8.1340   -1.7250   -2.5560 h1        1 MOL      0.025851
     67 H28        -6.1920   -1.1420   -3.8340 hc        1 MOL      0.104088
     68 H29        -6.0420   -2.9320   -3.4390 hc        1 MOL      0.104088
     69 N6         -6.8150   -2.7880    0.3480 n         1 MOL     -0.057192
     70 C23        -6.7660   -3.7940    1.4150 c3        1 MOL     -0.058160
     71 C24        -5.4780   -4.5970    1.4140 c         1 MOL      0.462511
     72 O13        -5.4580   -5.7460    1.9290 o         1 MOL     -0.589890
     73 H30        -6.5240   -1.8640    0.6450 hn        1 MOL      0.064517
     74 H31        -7.6070   -4.4860    1.3300 h1        1 MOL      0.058798
     75 H32        -7.0170   -3.3560    2.3790 h1        1 MOL      0.058798
     76 N7         -4.5010   -4.0490    0.6840 n         1 MOL     -0.166061
     77 C25        -3.0550   -4.5500    0.8000 c3        1 MOL      0.057091
     78 C26        -2.0520   -3.5130    1.1830 c         1 MOL      0.431153
     79 O14        -2.2530   -2.3120    0.9650 o         1 MOL     -0.545822
     80 C27        -2.7210   -5.3230   -0.4630 c3        1 MOL     -0.154119
     81 C28        -2.7680   -4.7350   -1.9160 c3        1 MOL     -0.014202
     82 C29        -1.6770   -3.7110   -2.3430 c         1 MOL      0.445404
     83 N8         -1.4000   -3.5900   -3.6100 n         1 MOL     -0.727319
     84 O15        -1.0610   -2.9680   -1.5540 o         1 MOL     -0.424221
     85 H33        -4.6250   -3.1720    0.1990 hn        1 MOL      0.161790
     86 H34        -3.0650   -5.2400    1.6490 h1        1 MOL      0.050122
     87 H35        -3.4690   -6.1040   -0.5440 hc        1 MOL      0.041155
     88 H36        -1.7660   -5.8260   -0.3090 hc        1 MOL      0.041155
     89 H37        -3.7290   -4.2530   -2.0530 hc        1 MOL      0.046948
     90 H38        -2.8440   -5.5500   -2.6210 hc        1 MOL      0.046948
     91 H39        -1.8230   -4.0950   -4.3700 hn        1 MOL      0.359065
     92 H40        -0.7170   -2.8910   -3.8710 hn        1 MOL      0.359065
     93 N9         -0.7960   -3.9520    1.4440 n         1 MOL     -0.426021
     94 C30         0.3590   -3.0810    1.5750 c3        1 MOL     -0.121483
     95 C31         1.5150   -3.5380    0.6650 c         1 MOL      0.467388
     96 O16         2.2560   -4.4540    1.0600 o         1 MOL     -0.562171
     97 C32         0.7440   -3.0760    3.1090 c3        1 MOL      0.437970
     98 C33         2.0330   -2.3440    3.5210 c3        1 MOL     -0.503630
     99 C34        -0.3260   -2.2210    3.8380 c3        1 MOL     -0.503630
    100 H41        -0.7500   -4.9310    1.6830 hn        1 MOL      0.291815
    101 H42         0.2000   -2.0300    1.3830 h1        1 MOL      0.170725
    102 H43         0.7630   -4.0850    3.5090 hc        1 MOL     -0.050364
    103 H44         2.1900   -1.4460    2.9330 hc        1 MOL      0.107411
    104 H45         1.9860   -2.0220    4.5640 hc        1 MOL      0.107411
    105 H46         2.7440   -3.1490    3.3300 hc        1 MOL      0.107411
    106 H47        -0.1650   -2.4650    4.8830 hc        1 MOL      0.107411
    107 H48        -0.1510   -1.1800    3.5370 hc        1 MOL      0.107411
    108 H49        -1.3050   -2.6360    3.6080 hc        1 MOL      0.107411
    109 N10         1.7570   -2.7680   -0.3920 n         1 MOL     -0.085372
    110 C35         2.9040   -2.8770   -1.2590 c3        1 MOL      0.007434
    111 C36         4.2090   -2.2150   -0.6060 c         1 MOL      0.509011
    112 O17         4.2070   -1.8670    0.6010 o         1 MOL     -0.465177
    113 C37         2.6330   -2.2890   -2.6660 c3        1 MOL     -0.156014
    114 C38         2.9410   -0.8170   -2.7350 c         1 MOL      0.491932
    115 N11         2.2820   -0.0170   -2.0170 n         1 MOL     -0.446970
    116 O18         3.8300   -0.3330   -3.4390 o         1 MOL     -0.614986
    117 H50         1.0520   -2.0880   -0.6400 hn        1 MOL     -0.027594
    118 H51         3.0200   -3.9460   -1.4250 h1        1 MOL      0.052031
    119 H52         1.6250   -2.4900   -3.0480 hc        1 MOL      0.070844
    120 H53         3.2460   -2.7970   -3.4120 hc        1 MOL      0.070844
    121 H54         1.5640   -0.4180   -1.4260 hn        1 MOL      0.316078
    122 H55         2.3600    0.9580   -2.2630 hn        1 MOL      0.316078
    123 N12         5.3210   -2.2130   -1.3480 n         1 MOL     -0.689363
    124 C39         6.6170   -1.6880   -0.8100 c3        1 MOL      0.533337
    125 C40         6.6510   -0.1960   -0.6100 c         1 MOL      0.489507
    126 O19         7.1940    0.2580    0.4080 o         1 MOL     -0.489987
    127 C41         7.7780   -2.2770   -1.6270 c3        1 MOL     -0.202420
    128 C42         9.1650   -1.9500   -1.1380 ca        1 MOL      0.169712
    129 C43         9.5750   -2.4100    0.0990 ca        1 MOL     -0.331756
    130 C44        10.0330   -1.1620   -1.9120 ca        1 MOL     -0.331756
    131 C45        10.8810   -2.1560    0.5960 ca        1 MOL     -0.053012
    132 C46        11.3330   -0.9200   -1.4430 ca        1 MOL     -0.053012
    133 C47        11.7950   -1.4380   -0.2010 ca        1 MOL      0.119573
    134 O20        12.9950   -1.1810    0.3540 oh        1 MOL     -0.442229
    135 H56         5.3040   -2.6610   -2.2600 hn        1 MOL      0.315549
    136 H57         6.7140   -2.0750    0.1970 h1        1 MOL     -0.003862
    137 H58         7.7610   -2.0610   -2.6880 hc        1 MOL      0.044707
    138 H59         7.6170   -3.3510   -1.4990 hc        1 MOL      0.044707
    139 H60         8.9100   -3.0400    0.6590 ha        1 MOL      0.169537
    140 H61         9.6800   -0.7190   -2.8280 ha        1 MOL      0.169537
    141 H62        11.2090   -2.5060    1.5590 ha        1 MOL      0.095689
    142 H63        12.0490   -0.3980   -2.0470 ha        1 MOL      0.095689
    143 H64        13.6080   -0.7860   -0.2710 ho        1 MOL      0.352637
    144 N13         5.9990    0.6530   -1.4340 n         1 MOL     -0.557414
    145 C48         5.7250    2.1080   -1.1380 c3        1 MOL      0.154812
    146 C49         5.0240    2.2980    0.2640 c         1 MOL      0.199717
    147 O21         5.4620    3.1800    1.0570 o         1 MOL     -0.519105
    148 C50         4.8680    2.7560   -2.2140 c3        1 MOL      0.110161
    149 C51         4.8880    4.2670   -2.2830 c3        1 MOL     -0.407179
    150 C52         3.9850    4.7020   -3.4420 c         1 MOL      0.731637
    151 O22         2.7160    4.6170   -3.3400 o         1 MOL     -0.733589
    152 O23         4.5340    5.0800   -4.5130 o         1 MOL     -0.733589
    153 H65         5.6790    0.2490   -2.2980 hn        1 MOL      0.266613
    154 H66         6.6300    2.7100   -1.0700 h1        1 MOL      0.070289
    155 H67         3.8630    2.3510   -2.3400 hc        1 MOL      0.028985
    156 H68         5.3880    2.5020   -3.1420 hc        1 MOL      0.028985
    157 H69         5.9140    4.5960   -2.3800 hc        1 MOL      0.073492
    158 H70         4.3770    4.6730   -1.4080 hc        1 MOL      0.073492
    159 N14         3.9930    1.5780    0.6380 n         1 MOL      0.078421
    160 C53         3.3190    1.7100    1.9220 c3        1 MOL     -0.122118
    161 C54         4.1950    1.0630    3.0630 c         1 MOL      0.508305
    162 O24         4.0560    1.5010    4.2260 o         1 MOL     -0.589965
    163 C55         2.0090    1.0540    1.7330 c3        1 MOL     -0.000652
    164 C56         1.1920    1.8600    0.7270 c3        1 MOL     -0.044575
    165 C57        -0.0440    1.0350    0.2900 c         1 MOL      0.880301
    166 O25        -1.1840    1.4450    0.4490 o         1 MOL     -0.848925
    167 O26         0.1710   -0.0240   -0.3460 o         1 MOL     -0.848925
    168 H71         3.5890    0.9140   -0.0010 hn        1 MOL      0.035128
    169 H72         3.1810    2.7410    2.2290 h1        1 MOL      0.101991
    170 H73         1.4630    0.9780    2.6690 hc        1 MOL      0.075388
    171 H74         2.1640    0.0170    1.4130 hc        1 MOL      0.075388
    172 H75         1.7000    2.0550   -0.2160 hc        1 MOL      0.005304
    173 H76         0.7950    2.8110    1.0840 hc        1 MOL      0.005304
    174 N15         5.1100    0.1790    2.7240 n         1 MOL     -0.025754
    175 C58         6.0610   -0.3580    3.6940 c3        1 MOL     -0.309610
    176 H77         6.6690    0.4530    4.0940 h1        1 MOL      0.101380
    177 H78         5.5170   -0.8390    4.5090 h1        1 MOL      0.101380
    178 H79         6.7050   -1.0900    3.2060 h1        1 MOL      0.101380
    179 H80         5.3210    0.0400    1.7470 hn        1 MOL      0.061997
    180 Ca1        -2.2150   -0.5330   -1.0760 Ca        1 MOL      1.716232
    181 O27        -0.7980   -0.1860   -3.5570 oh        1 MOL     -0.885281
    182 H81        -1.1380    0.6980   -3.6750 ho        1 MOL      0.398195
    183 H82         0.1040   -0.1460   -3.8580 ho        1 MOL      0.398195
@<TRIPOS>BOND
     1    1    2 1   
     2    1    4 1   
     3    1    5 1   
     4    1    6 1   
     5    2    3 2   
     6    2    7 1   
     7    7    8 1   
     8    7   15 1   
     9    8    9 1   
    10    8   11 1   
    11    8   16 1   
    12    9   10 2   
    13    9   19 1   
    14   11   12 1   
    15   11   17 1   
    16   11   18 1   
    17   12   13 1   
    18   12   14 1   
    19   19   20 1   
    20   19   27 1   
    21   20   21 1   
    22   20   23 1   
    23   20   28 1   
    24   21   22 2   
    25   21   38 1   
    26   23   24 1   
    27   23   25 1   
    28   23   29 1   
    29   24   26 1   
    30   24   30 1   
    31   24   31 1   
    32   25   32 1   
    33   25   33 1   
    34   25   34 1   
    35   26   35 1   
    36   26   36 1   
    37   26   37 1   
    38   38   39 1   
    39   38   46 1   
    40   39   40 1   
    41   39   42 1   
    42   39   47 1   
    43   40   41 2   
    44   40   50 1   
    45   42   43 1   
    46   42   48 1   
    47   42   49 1   
    48   43   44 1   
    49   43   45 1   
    50   50   51 1   
    51   50   54 1   
    52   51   52 1   
    53   51   55 1   
    54   51   56 1   
    55   52   53 2   
    56   52   57 1   
    57   57   58 1   
    58   57   65 1   
    59   58   59 1   
    60   58   61 1   
    61   58   66 1   
    62   59   60 2   
    63   59   69 1   
    64   61   62 1   
    65   61   67 1   
    66   61   68 1   
    67   62   63 1   
    68   62   64 1   
    69   69   70 1   
    70   69   73 1   
    71   70   71 1   
    72   70   74 1   
    73   70   75 1   
    74   71   72 2   
    75   71   76 1   
    76   76   77 1   
    77   76   85 1   
    78   77   78 1   
    79   77   80 1   
    80   77   86 1   
    81   78   79 2   
    82   78   93 1   
    83   80   81 1   
    84   80   87 1   
    85   80   88 1   
    86   81   82 1   
    87   81   89 1   
    88   81   90 1   
    89   82   83 1   
    90   82   84 2   
    91   83   91 1   
    92   83   92 1   
    93   93   94 1   
    94   93  100 1   
    95   94   95 1   
    96   94   97 1   
    97   94  101 1   
    98   95   96 2   
    99   95  109 1   
   100   97   98 1   
   101   97   99 1   
   102   97  102 1   
   103   98  103 1   
   104   98  104 1   
   105   98  105 1   
   106   99  106 1   
   107   99  107 1   
   108   99  108 1   
   109  109  110 1   
   110  109  117 1   
   111  110  111 1   
   112  110  113 1   
   113  110  118 1   
   114  111  112 2   
   115  111  123 1   
   116  113  114 1   
   117  113  119 1   
   118  113  120 1   
   119  114  115 1   
   120  114  116 2   
   121  115  121 1   
   122  115  122 1   
   123  123  124 1   
   124  123  135 1   
   125  124  125 1   
   126  124  127 1   
   127  124  136 1   
   128  125  126 2   
   129  125  144 1   
   130  127  128 1   
   131  127  137 1   
   132  127  138 1   
   133  128  129 ar  
   134  128  130 ar  
   135  129  131 ar  
   136  129  139 1   
   137  130  132 ar  
   138  130  140 1   
   139  131  133 ar  
   140  131  141 1   
   141  132  133 ar  
   142  132  142 1   
   143  133  134 1   
   144  134  143 1   
   145  144  145 1   
   146  144  153 1   
   147  145  146 1   
   148  145  148 1   
   149  145  154 1   
   150  146  147 2   
   151  146  159 1   
   152  148  149 1   
   153  148  155 1   
   154  148  156 1   
   155  149  150 1   
   156  149  157 1   
   157  149  158 1   
   158  150  151 1   
   159  150  152 1   
   160  159  160 1   
   161  159  168 1   
   162  160  161 1   
   163  160  163 1   
   164  160  169 1   
   165  161  162 2   
   166  161  174 1   
   167  163  164 1   
   168  163  170 1   
   169  163  171 1   
   170  164  165 1   
   171  164  172 1   
   172  164  173 1   
   173  165  166 1   
   174  165  167 1   
   175  174  175 1   
   176  174  179 1   
   177  175  176 1   
   178  175  177 1   
   179  175  178 1   
   180  181  182 1   
   181  181  183 1   
@<TRIPOS>SUBSTRUCTURE
     1 MOL         1 TEMP              0 ****  ****    0 ROOT
