@<TRIPOS>MOLECULE
MOL
  179   176     1     0     0
SMALL
resp


@<TRIPOS>ATOM
      1 C1          1.7720    2.8440    6.5450 c3        1 MOL     -0.378806
      2 C2          1.7340    2.6240    5.0520 c         1 MOL      0.807386
      3 O1          2.6850    2.0510    4.5400 o         1 MOL     -0.576874
      4 H1          0.7530    2.9210    6.9260 hc        1 MOL      0.091988
      5 H2          2.2750    2.0030    7.0240 hc        1 MOL      0.091988
      6 H3          2.3120    3.7650    6.7640 hc        1 MOL      0.091988
      7 N1          0.5800    3.0840    4.4390 n         1 MOL     -0.717952
      8 C3          0.2960    3.0450    2.9900 c3        1 MOL      0.094844
      9 C4          0.2950    4.3970    2.3280 c         1 MOL      0.544369
     10 O2          0.1140    5.4970    2.8350 o         1 MOL     -0.536732
     11 C5         -1.1150    2.4170    2.7170 c3        1 MOL     -0.019449
     12 C6         -1.4440    1.8330    1.3080 c         1 MOL      0.535655
     13 O3         -2.5220    1.2830    1.0490 o         1 MOL     -0.667450
     14 O4         -0.6490    2.0970    0.3540 o         1 MOL     -0.667450
     15 H4         -0.0940    3.4820    5.0670 hn        1 MOL      0.341236
     16 H5          1.0440    2.4000    2.5270 h1        1 MOL      0.026829
     17 H6         -1.7880    3.2590    2.8460 hc        1 MOL      0.028288
     18 H7         -1.4150    1.6130    3.3860 hc        1 MOL      0.028288
     19 N2          0.6140    4.3490    1.0260 n         1 MOL     -0.282153
     20 C7          0.7000    5.4830    0.0180 c3        1 MOL     -0.155306
     21 C8         -0.5780    6.0060   -0.5420 c         1 MOL      0.610637
     22 O5         -0.7370    7.2390   -0.6230 o         1 MOL     -0.574381
     23 C9          1.7590    5.0530   -1.0780 c3        1 MOL     -0.122618
     24 C10         3.1680    5.2210   -0.6330 c3        1 MOL      0.330346
     25 C11         4.2440    4.9640   -1.7420 c3        1 MOL     -0.213509
     26 C12         5.6420    4.5980   -1.1060 c3        1 MOL      0.248133
     27 N3          6.7270    4.4680   -2.1810 n4        1 MOL     -0.406279
     28 H8          0.8160    3.4640    0.5820 hn        1 MOL      0.249137
     29 H9          1.0990    6.2900    0.6360 h1        1 MOL      0.097142
     30 H10         1.6610    5.6110   -2.0150 hc        1 MOL      0.042288
     31 H11         1.5910    3.9960   -1.2920 hc        1 MOL      0.042288
     32 H12         3.3080    4.6460    0.2930 hc        1 MOL     -0.046388
     33 H13         3.3430    6.2700   -0.4190 hc        1 MOL     -0.046388
     34 H14         4.3950    5.9000   -2.2740 hc        1 MOL      0.051027
     35 H15         3.9980    4.0920   -2.3590 hc        1 MOL      0.051027
     36 H16         5.5810    3.6610   -0.5620 hx        1 MOL      0.022253
     37 H17         5.9000    5.3700   -0.3850 hx        1 MOL      0.022253
     38 H18         6.6320    3.6620   -2.7900 hn        1 MOL      0.327550
     39 H19         6.6160    5.1800   -2.8910 hn        1 MOL      0.327550
     40 H20         7.6200    4.5960   -1.7330 hn        1 MOL      0.327550
     41 N4         -1.5790    5.1810   -0.8770 n         1 MOL     -0.453095
     42 C13        -2.8420    5.4270   -1.5140 c3        1 MOL      0.183263
     43 C14        -4.0000    4.8490   -0.6930 c         1 MOL      0.369915
     44 O6         -5.1390    5.2680   -0.8630 o         1 MOL     -0.547831
     45 C15        -2.8490    4.7910   -2.9210 c3        1 MOL     -0.287345
     46 C16        -2.5240    3.2700   -2.9750 c         1 MOL      0.772432
     47 O7         -2.4590    2.7290   -4.1250 o         1 MOL     -0.717685
     48 O8         -2.4220    2.6180   -1.9330 o         1 MOL     -0.717685
     49 H21        -1.3270    4.2130   -0.7300 hn        1 MOL      0.293164
     50 H22        -3.0510    6.4970   -1.6080 h1        1 MOL      0.085184
     51 H23        -2.1700    5.3550   -3.5520 hc        1 MOL      0.075671
     52 H24        -3.8600    4.9830   -3.2900 hc        1 MOL      0.075671
     53 N5         -3.7490    4.0120    0.2590 n         1 MOL     -0.043475
     54 C17        -4.6170    3.6260    1.3850 c3        1 MOL     -0.088120
     55 C18        -5.7270    2.7620    0.9290 c         1 MOL      0.613957
     56 O9         -6.8420    2.9000    1.4090 o         1 MOL     -0.593476
     57 H25        -2.7970    3.6610    0.2960 hn        1 MOL      0.029915
     58 H26        -5.0780    4.4810    1.8820 h1        1 MOL      0.065016
     59 H27        -3.9800    3.1070    2.1170 h1        1 MOL      0.065016
     60 N6         -5.4760    1.9000   -0.0710 n         1 MOL     -0.229523
     61 C19        -6.4460    1.1040   -0.8030 c3        1 MOL     -0.141170
     62 C20        -6.8010   -0.2430   -0.0870 c         1 MOL      0.356126
     63 O10        -7.3290   -1.1760   -0.7180 o         1 MOL     -0.446972
     64 C21        -5.8700    0.9670   -2.2850 c3        1 MOL     -0.200960
     65 C22        -4.7990   -0.1400   -2.3420 c         1 MOL      0.701508
     66 N7         -4.9690   -1.1090   -3.2320 n         1 MOL     -0.816814
     67 O11        -3.8110   -0.1240   -1.6340 o         1 MOL     -0.657066
     68 H28        -4.4880    1.8010   -0.2460 hn        1 MOL      0.166862
     69 H29        -7.3300    1.7370   -0.7660 h1        1 MOL      0.160615
     70 H30        -5.5390    1.9240   -2.7030 hc        1 MOL      0.102608
     71 H31        -6.6620    0.6570   -2.9750 hc        1 MOL      0.102608
     72 H32        -5.6330   -1.0130   -3.9760 hn        1 MOL      0.374204
     73 H33        -4.5340   -2.0220   -3.1160 hn        1 MOL      0.374204
     74 N8         -6.4290   -0.2940    1.1860 n         1 MOL     -0.164698
     75 C23        -6.6220   -1.4250    2.0850 c3        1 MOL     -0.277989
     76 C24        -5.5990   -2.5420    1.8550 c         1 MOL      0.652411
     77 O12        -5.6590   -3.5390    2.6090 o         1 MOL     -0.601365
     78 H34        -5.9290    0.5170    1.5210 hn        1 MOL      0.218498
     79 H35        -7.6230   -1.8660    2.1820 h1        1 MOL      0.138119
     80 H36        -6.4040   -1.1230    3.1040 h1        1 MOL      0.138119
     81 N9         -4.5830   -2.3440    1.0810 n         1 MOL     -0.395298
     82 C25        -3.4150   -3.2430    0.8860 c3        1 MOL      0.052590
     83 C26        -2.1170   -2.4710    1.0700 c         1 MOL      0.485889
     84 O13        -2.0480   -1.3440    0.6060 o         1 MOL     -0.530809
     85 C27        -3.5390   -3.8890   -0.4790 c3        1 MOL     -0.028579
     86 C28        -4.8260   -4.6780   -0.6270 ca        1 MOL     -0.067980
     87 C29        -5.9310   -4.1970   -1.3540 ca        1 MOL     -0.167110
     88 C30        -4.8710   -5.9750   -0.0130 ca        1 MOL     -0.167110
     89 C31        -7.1250   -4.8830   -1.3700 ca        1 MOL     -0.194562
     90 C32        -6.0440   -6.7180   -0.1490 ca        1 MOL     -0.194562
     91 C33        -7.1900   -6.1470   -0.6980 ca        1 MOL      0.305689
     92 O14        -8.4030   -6.7300   -0.6830 oh        1 MOL     -0.464013
     93 H37        -4.6030   -1.5170    0.4960 hn        1 MOL      0.296505
     94 H38        -3.4740   -4.0630    1.6070 h1        1 MOL      0.085105
     95 H39        -2.7400   -4.5900   -0.7020 hc        1 MOL      0.053009
     96 H40        -3.3560   -3.1040   -1.2110 hc        1 MOL      0.053009
     97 H41        -5.8420   -3.2750   -1.9280 ha        1 MOL      0.139750
     98 H42        -4.0550   -6.4100    0.5360 ha        1 MOL      0.139750
     99 H43        -7.9900   -4.5450   -1.9220 ha        1 MOL      0.123449
    100 H44        -5.9780   -7.7600    0.0950 ha        1 MOL      0.123449
    101 H45        -8.4150   -7.5940   -0.2490 ho        1 MOL      0.358147
    102 N10        -1.0960   -3.1390    1.6110 n         1 MOL     -0.396388
    103 C34         0.3100   -2.8470    1.4990 c3        1 MOL     -0.096622
    104 C35         1.1520   -3.8760    0.6570 c         1 MOL      0.521372
    105 O15         0.9440   -5.0420    0.6540 o         1 MOL     -0.548932
    106 C36         0.9790   -2.3310    2.7110 c3        1 MOL      0.203344
    107 C37         1.0690   -3.4630    3.8700 c3        1 MOL     -0.185586
    108 C38         0.2870   -0.9700    3.1300 c3        1 MOL     -0.365280
    109 C39         1.8150   -3.0000    5.1480 c3        1 MOL     -0.085344
    110 H46        -1.3010   -4.0130    2.0810 hn        1 MOL      0.263310
    111 H47         0.4320   -1.9610    0.8740 h1        1 MOL      0.028465
    112 H48         2.0330   -2.1450    2.4960 hc        1 MOL     -0.028543
    113 H49         1.7320   -4.2670    3.5400 hc        1 MOL      0.080130
    114 H50         0.0640   -3.7410    4.1780 hc        1 MOL      0.080130
    115 H51         0.5370   -0.1690    2.4320 hc        1 MOL      0.119811
    116 H52        -0.7990   -1.0550    3.0650 hc        1 MOL      0.119811
    117 H53         0.6950   -0.7000    4.1010 hc        1 MOL      0.119811
    118 H54         1.9590   -3.8160    5.8600 hc        1 MOL      0.027934
    119 H55         2.8390   -2.7330    4.8950 hc        1 MOL      0.027934
    120 H56         1.2970   -2.1800    5.6320 hc        1 MOL      0.027934
    121 N11         2.1710   -3.3470   -0.0030 n         1 MOL     -0.287495
    122 C40         3.1860   -4.0650   -0.7840 c3        1 MOL      0.062990
    123 C41         4.6350   -3.8660   -0.2740 c         1 MOL      0.342629
    124 O16         4.8560   -2.9840    0.5860 o         1 MOL     -0.418337
    125 C42         3.1240   -3.5760   -2.2700 c3        1 MOL     -0.153903
    126 O17         3.4490   -2.2660   -2.3390 oh        1 MOL     -0.362544
    127 H57         2.3100   -2.3530    0.1610 hn        1 MOL      0.295711
    128 H58         2.9330   -5.1250   -0.7820 h1        1 MOL      0.079406
    129 H59         2.1710   -3.8630   -2.7220 h1        1 MOL      0.073793
    130 H60         3.8390   -4.1810   -2.8320 h1        1 MOL      0.073793
    131 H61         3.4470   -1.9960   -3.2610 ho        1 MOL      0.374046
    132 N12         5.6330   -4.6820   -0.5980 n         1 MOL     -0.283995
    133 C43         6.9980   -4.5160   -0.0770 c3        1 MOL     -0.003346
    134 C44         7.6130   -3.2380   -0.6820 c         1 MOL      0.580224
    135 O18         8.4060   -2.6340    0.0250 o         1 MOL     -0.496906
    136 C45         7.7600   -5.8020   -0.4800 c3        1 MOL     -0.271509
    137 H62         5.4500   -5.4450   -1.2210 hn        1 MOL      0.247584
    138 H63         6.9550   -4.4850    1.0170 h1        1 MOL      0.132095
    139 H64         7.7630   -5.8410   -1.5760 hc        1 MOL      0.088187
    140 H65         8.8110   -5.7150   -0.2180 hc        1 MOL      0.088187
    141 H66         7.2190   -6.7220   -0.2760 hc        1 MOL      0.088187
    142 N13         7.3260   -2.8350   -1.9230 n         1 MOL     -0.511411
    143 C46         7.7690   -1.5100   -2.4630 c3        1 MOL      0.207936
    144 C47         7.2490   -0.3740   -1.5710 c         1 MOL      0.269360
    145 O19         8.0350    0.5130   -1.1730 o         1 MOL     -0.488500
    146 C48         7.4770   -1.2470   -4.0080 c3        1 MOL     -0.437747
    147 H67         6.6580   -3.4010   -2.4260 hn        1 MOL      0.274668
    148 H68         8.8580   -1.4640   -2.3520 h1        1 MOL      0.093471
    149 H69         7.9350   -0.3410   -4.3940 hc        1 MOL      0.129356
    150 H70         7.8550   -1.9820   -4.7170 hc        1 MOL      0.129356
    151 H71         6.4030   -1.4260   -4.1050 hc        1 MOL      0.129356
    152 N14         5.9600   -0.3210   -1.1590 n         1 MOL     -0.069387
    153 C49         5.5050    0.7100   -0.2110 c3        1 MOL     -0.182654
    154 C50         5.8430    0.5810    1.3070 c         1 MOL      0.475489
    155 O20         5.9790    1.5920    2.0470 o         1 MOL     -0.557747
    156 C51         3.8830    0.6860   -0.2060 c3        1 MOL     -0.052124
    157 C52         3.3020    0.8240   -1.5900 c3        1 MOL      0.164843
    158 C53         1.7800    0.5960   -1.6120 c         1 MOL      0.573441
    159 O21         1.1890   -0.2790   -0.8920 o         1 MOL     -0.699171
    160 O22         0.9970    1.3290   -2.2620 o         1 MOL     -0.699171
    161 H72         5.2560   -0.8810   -1.6150 hn        1 MOL      0.133221
    162 H73         5.7700    1.6750   -0.6360 h1        1 MOL      0.096742
    163 H74         3.4010    1.4110    0.4510 hc        1 MOL      0.038590
    164 H75         3.6830   -0.3250    0.1440 hc        1 MOL      0.038590
    165 H76         3.7370    0.1390   -2.3150 hc        1 MOL     -0.083167
    166 H77         3.5570    1.8060   -1.9870 hc        1 MOL     -0.083167
    167 N15         5.9700   -0.6050    1.8880 n         1 MOL     -0.066605
    168 C54         6.5440   -0.9590    3.2290 c3        1 MOL     -0.292991
    169 H78         7.5120   -1.4420    3.0930 h1        1 MOL      0.129202
    170 H79         6.6720   -0.0530    3.8210 h1        1 MOL      0.129202
    171 H80         5.8680   -1.6400    3.7460 h1        1 MOL      0.129202
    172 H81         5.8210   -1.3220    1.1940 hn        1 MOL      0.088323
    173 Ca1        -1.2630    0.3520   -1.3780 Ca        1 MOL      1.775242
    174 O23        -1.8390    0.1650   -4.0090 oh        1 MOL     -0.846759
    175 H82        -2.5250   -0.3120   -4.4870 ho        1 MOL      0.398310
    176 H83        -2.0340    1.0900   -4.1590 ho        1 MOL      0.398310
    177 O24        -0.3250   -1.9960   -2.3740 oh        1 MOL     -0.846759
    178 H84        -0.3980   -2.9470   -2.4770 ho        1 MOL      0.398310
    179 H85         0.6000   -1.8440   -2.1730 ho        1 MOL      0.398310
@<TRIPOS>BOND
     1    1    2 1   
     2    1    4 1   
     3    1    5 1   
     4    1    6 1   
     5    2    3 2   
     6    2    7 1   
     7    7    8 1   
     8    7   15 1   
     9    8    9 1   
    10    8   11 1   
    11    8   16 1   
    12    9   10 2   
    13    9   19 1   
    14   11   12 1   
    15   11   17 1   
    16   11   18 1   
    17   12   13 1   
    18   12   14 1   
    19   19   20 1   
    20   19   28 1   
    21   20   21 1   
    22   20   23 1   
    23   20   29 1   
    24   21   22 2   
    25   21   41 1   
    26   23   24 1   
    27   23   30 1   
    28   23   31 1   
    29   24   25 1   
    30   24   32 1   
    31   24   33 1   
    32   25   26 1   
    33   25   34 1   
    34   25   35 1   
    35   26   27 1   
    36   26   36 1   
    37   26   37 1   
    38   27   38 1   
    39   27   39 1   
    40   27   40 1   
    41   41   42 1   
    42   41   49 1   
    43   42   43 1   
    44   42   45 1   
    45   42   50 1   
    46   43   44 2   
    47   43   53 1   
    48   45   46 1   
    49   45   51 1   
    50   45   52 1   
    51   46   47 1   
    52   46   48 1   
    53   53   54 1   
    54   53   57 1   
    55   54   55 1   
    56   54   58 1   
    57   54   59 1   
    58   55   56 2   
    59   55   60 1   
    60   60   61 1   
    61   60   68 1   
    62   61   62 1   
    63   61   64 1   
    64   61   69 1   
    65   62   63 2   
    66   62   74 1   
    67   64   65 1   
    68   64   70 1   
    69   64   71 1   
    70   65   66 1   
    71   65   67 2   
    72   66   72 1   
    73   66   73 1   
    74   74   75 1   
    75   74   78 1   
    76   75   76 1   
    77   75   79 1   
    78   75   80 1   
    79   76   77 2   
    80   76   81 1   
    81   81   82 1   
    82   81   93 1   
    83   82   83 1   
    84   82   85 1   
    85   82   94 1   
    86   83   84 2   
    87   83  102 1   
    88   85   86 1   
    89   85   95 1   
    90   85   96 1   
    91   86   87 ar  
    92   86   88 ar  
    93   87   89 ar  
    94   87   97 1   
    95   88   90 ar  
    96   88   98 1   
    97   89   91 ar  
    98   89   99 1   
    99   90   91 ar  
   100   90  100 1   
   101   91   92 1   
   102   92  101 1   
   103  102  103 1   
   104  102  110 1   
   105  103  104 1   
   106  103  106 1   
   107  103  111 1   
   108  104  105 2   
   109  104  121 1   
   110  106  107 1   
   111  106  108 1   
   112  106  112 1   
   113  107  109 1   
   114  107  113 1   
   115  107  114 1   
   116  108  115 1   
   117  108  116 1   
   118  108  117 1   
   119  109  118 1   
   120  109  119 1   
   121  109  120 1   
   122  121  122 1   
   123  121  127 1   
   124  122  123 1   
   125  122  125 1   
   126  122  128 1   
   127  123  124 2   
   128  123  132 1   
   129  125  126 1   
   130  125  129 1   
   131  125  130 1   
   132  126  131 1   
   133  132  133 1   
   134  132  137 1   
   135  133  134 1   
   136  133  136 1   
   137  133  138 1   
   138  134  135 2   
   139  134  142 1   
   140  136  139 1   
   141  136  140 1   
   142  136  141 1   
   143  142  143 1   
   144  142  147 1   
   145  143  144 1   
   146  143  146 1   
   147  143  148 1   
   148  144  145 2   
   149  144  152 1   
   150  146  149 1   
   151  146  150 1   
   152  146  151 1   
   153  152  153 1   
   154  152  161 1   
   155  153  154 1   
   156  153  156 1   
   157  153  162 1   
   158  154  155 2   
   159  154  167 1   
   160  156  157 1   
   161  156  163 1   
   162  156  164 1   
   163  157  158 1   
   164  157  165 1   
   165  157  166 1   
   166  158  159 1   
   167  158  160 1   
   168  167  168 1   
   169  167  172 1   
   170  168  169 1   
   171  168  170 1   
   172  168  171 1   
   173  174  175 1   
   174  174  176 1   
   175  177  178 1   
   176  177  179 1   
@<TRIPOS>SUBSTRUCTURE
     1 MOL         1 TEMP              0 ****  ****    0 ROOT
