@<TRIPOS>MOLECULE
MOL
  186   183     1     0     0
SMALL
resp


@<TRIPOS>ATOM
      1 C1          0.9740   -1.9870    6.3580 c3        1 MOL     -0.303253
      2 C2          1.1390   -1.9660    4.8270 c         1 MOL      0.710373
      3 O1          0.2130   -2.4610    4.1190 o         1 MOL     -0.571014
      4 H1          0.5730   -2.9520    6.6670 hc        1 MOL      0.070974
      5 H2          1.9430   -1.8300    6.8320 hc        1 MOL      0.070974
      6 H3          0.2890   -1.1960    6.6610 hc        1 MOL      0.070974
      7 N1          2.2490   -1.4400    4.3480 n         1 MOL     -0.604965
      8 C3          2.7540   -1.5240    3.0180 c3        1 MOL      0.147300
      9 C4          3.0880   -2.9750    2.6150 c         1 MOL      0.635241
     10 O2          3.8690   -3.6770    3.2310 o         1 MOL     -0.586738
     11 C5          4.0120   -0.5990    2.8520 c3        1 MOL     -0.165012
     12 C6          4.5180   -0.6250    1.3770 c         1 MOL      0.669627
     13 O3          5.7380   -0.5620    1.1620 o         1 MOL     -0.610211
     14 O4          3.6350   -0.9380    0.5570 o         1 MOL     -0.610211
     15 H4          2.7990   -1.0000    5.0770 hn        1 MOL      0.310906
     16 H5          1.9920   -1.2060    2.3180 h1        1 MOL      0.064008
     17 H6          4.8190   -0.8800    3.5360 hc        1 MOL      0.020221
     18 H7          3.6790    0.4250    3.0580 hc        1 MOL      0.020221
     19 N2          2.4210   -3.4410    1.4840 n         1 MOL     -0.280457
     20 C7          2.3220   -4.8560    0.9620 c3        1 MOL     -0.096866
     21 C8          3.3080   -5.1550   -0.1770 c         1 MOL      0.545705
     22 O5          3.7540   -6.2930   -0.3290 o         1 MOL     -0.584620
     23 C9          0.8790   -5.2730    0.5810 c3        1 MOL      0.345164
     24 C10        -0.0830   -4.8870    1.7440 c3        1 MOL      0.001171
     25 C11         0.6630   -6.7790    0.2370 c3        1 MOL     -0.416250
     26 C12        -0.0780   -5.8480    2.9900 c3        1 MOL     -0.380975
     27 H8          2.0510   -2.7000    0.9000 hn        1 MOL     -0.003461
     28 H9          2.6430   -5.5630    1.7310 h1        1 MOL      0.080296
     29 H10         0.4870   -4.7320   -0.2810 hc        1 MOL     -0.008118
     30 H11        -1.0960   -5.1030    1.3770 hc        1 MOL      0.056883
     31 H12        -0.0410   -3.8670    2.1190 hc        1 MOL      0.056883
     32 H13        -0.3540   -7.1350    0.0590 hc        1 MOL      0.085617
     33 H14         1.2570   -6.8900   -0.6690 hc        1 MOL      0.085617
     34 H15         1.0030   -7.3780    1.0760 hc        1 MOL      0.085617
     35 H16        -0.4790   -6.8520    2.8590 hc        1 MOL      0.080837
     36 H17         0.8780   -6.0200    3.4760 hc        1 MOL      0.080837
     37 H18        -0.7220   -5.4520    3.7680 hc        1 MOL      0.080837
     38 N3          3.6660   -4.1380   -1.0230 n         1 MOL     -0.374423
     39 C13         4.5000   -4.3980   -2.1970 c3        1 MOL      0.043318
     40 C14         5.8360   -3.5770   -2.2570 c         1 MOL      0.438549
     41 O6          6.5650   -3.7190   -3.2350 o         1 MOL     -0.536089
     42 C15         3.7200   -4.1700   -3.4750 c3        1 MOL     -0.243110
     43 C16         3.1270   -2.7110   -3.5960 c         1 MOL      0.795214
     44 O7          3.2900   -1.8510   -2.7080 o         1 MOL     -0.732661
     45 O8          2.3510   -2.5680   -4.5930 o         1 MOL     -0.732661
     46 H19         3.2030   -3.2470   -0.9040 hn        1 MOL      0.235691
     47 H20         4.7470   -5.4570   -2.1660 h1        1 MOL      0.090411
     48 H21         2.9580   -4.9370   -3.3730 hc        1 MOL      0.062429
     49 H22         4.2600   -4.3800   -4.3990 hc        1 MOL      0.062429
     50 N4          6.1740   -2.8040   -1.2040 n         1 MOL     -0.197678
     51 C17         7.5710   -2.5110   -0.9100 c3        1 MOL     -0.343062
     52 C18         8.1080   -1.0640   -1.2570 c         1 MOL      0.598875
     53 O9          9.2020   -0.7380   -1.0500 o         1 MOL     -0.601795
     54 H23         5.4680   -2.4510   -0.5600 hn        1 MOL      0.176058
     55 H24         8.2380   -3.2400   -1.3890 h1        1 MOL      0.146755
     56 H25         7.6570   -2.6270    0.1690 h1        1 MOL      0.146755
     57 N5          7.2320   -0.1300   -1.5670 n         1 MOL     -0.188233
     58 C19         7.5590    1.2760   -1.8730 c3        1 MOL      0.008548
     59 C20         7.5420    2.2570   -0.6900 c         1 MOL      0.378317
     60 O10         7.9640    3.4140   -0.7930 o         1 MOL     -0.557007
     61 C21         6.4950    1.7930   -2.8630 c3        1 MOL     -0.288791
     62 C22         5.0640    1.5180   -2.5540 c         1 MOL      0.839521
     63 O11         4.3590    1.0270   -3.4090 o         1 MOL     -0.745860
     64 O12         4.5240    1.7800   -1.4640 o         1 MOL     -0.745860
     65 H26         6.2640   -0.3820   -1.3810 hn        1 MOL      0.097431
     66 H27         8.5500    1.3780   -2.3100 h1        1 MOL      0.102061
     67 H28         6.8170    1.2230   -3.7300 hc        1 MOL      0.072134
     68 H29         6.6290    2.8660   -3.0150 hc        1 MOL      0.072134
     69 N6          7.0350    1.8370    0.4410 n         1 MOL     -0.067375
     70 C23         6.9250    2.6730    1.6220 c3        1 MOL     -0.234065
     71 C24         5.7640    3.7030    1.6450 c         1 MOL      0.583723
     72 O13         5.9130    4.8020    2.2290 o         1 MOL     -0.602895
     73 H30         6.6740    0.8970    0.5340 hn        1 MOL      0.154709
     74 H31         7.8170    3.2950    1.7160 h1        1 MOL      0.090967
     75 H32         6.7310    2.0960    2.5150 h1        1 MOL      0.090967
     76 N7          4.6960    3.4290    0.8320 n         1 MOL     -0.327723
     77 C25         3.3980    3.9670    0.9130 c3        1 MOL      0.030648
     78 C26         2.3330    2.8870    1.1710 c         1 MOL      0.489582
     79 O14         2.3880    1.7520    0.8220 o         1 MOL     -0.549267
     80 C27         3.1680    4.9900   -0.2840 c3        1 MOL      0.064583
     81 C28         3.9250    6.3160   -0.0060 c3        1 MOL     -0.270599
     82 C29         3.3210    7.6070   -0.6880 c         1 MOL      0.690222
     83 N8          4.1520    8.6700   -0.7920 n         1 MOL     -0.831934
     84 O15         2.1780    7.7830   -1.0580 o         1 MOL     -0.541831
     85 H33         4.8990    2.6270    0.2620 hn        1 MOL      0.218726
     86 H34         3.3150    4.6430    1.7630 h1        1 MOL      0.019785
     87 H35         2.1140    5.2910   -0.2220 hc        1 MOL     -0.010785
     88 H36         3.3260    4.5230   -1.2550 hc        1 MOL     -0.010785
     89 H37         4.9120    6.1830   -0.4390 hc        1 MOL      0.101714
     90 H38         3.9850    6.5280    1.0660 hc        1 MOL      0.101714
     91 H39         5.0070    8.7310   -0.2630 hn        1 MOL      0.346523
     92 H40         3.8360    9.5560   -1.1330 hn        1 MOL      0.346523
     93 N9          1.2190    3.4160    1.6800 n         1 MOL     -0.332783
     94 C30         0.0530    2.5610    1.9250 c3        1 MOL     -0.078174
     95 C31        -1.2050    2.9690    1.1120 c         1 MOL      0.350275
     96 O16        -1.6560    4.1310    1.1730 o         1 MOL     -0.586969
     97 C32        -0.4990    2.4970    3.4120 c3        1 MOL      0.373692
     98 C33        -1.3740    1.2590    3.6840 c3        1 MOL     -0.443875
     99 C34         0.6890    2.3160    4.4010 c3        1 MOL     -0.443875
    100 H41         1.1910    4.3950    1.9380 hn        1 MOL      0.281311
    101 H42         0.3170    1.5250    1.7130 h1        1 MOL      0.165722
    102 H43        -1.0020    3.4360    3.6520 hc        1 MOL     -0.046259
    103 H44        -0.9440    0.3150    3.3700 hc        1 MOL      0.090184
    104 H45        -1.6330    1.1870    4.7440 hc        1 MOL      0.090184
    105 H46        -2.3510    1.4300    3.2340 hc        1 MOL      0.090184
    106 H47         1.2590    1.4470    4.0590 hc        1 MOL      0.090184
    107 H48         1.3900    3.1430    4.2910 hc        1 MOL      0.090184
    108 H49         0.2440    2.1430    5.3800 hc        1 MOL      0.090184
    109 N10        -1.6510    2.1440    0.2160 n         1 MOL     -0.046707
    110 C35        -2.7890    2.4240   -0.7650 c3        1 MOL      0.052085
    111 C36        -4.0910    2.1070    0.0290 c         1 MOL      0.308820
    112 O17        -4.0650    1.3900    1.0320 o         1 MOL     -0.320741
    113 C37        -2.5030    1.4780   -1.9980 c3        1 MOL     -0.418414
    114 C38        -3.6200    1.5120   -3.0460 c         1 MOL      0.628241
    115 N11        -3.9130    2.6530   -3.6570 n         1 MOL     -0.763899
    116 O18        -4.4000    0.5680   -3.2020 o         1 MOL     -0.500382
    117 H50        -1.1210    1.2970    0.0780 hn        1 MOL      0.115921
    118 H51        -2.7750    3.4630   -1.0540 h1        1 MOL      0.058257
    119 H52        -2.3930    0.4280   -1.7430 hc        1 MOL      0.170179
    120 H53        -1.5740    1.7380   -2.5090 hc        1 MOL      0.170179
    121 H54        -3.3360    3.4410   -3.4060 hn        1 MOL      0.363090
    122 H55        -4.7670    2.5830   -4.1970 hn        1 MOL      0.363090
    123 N12        -5.2520    2.5940   -0.4320 n         1 MOL     -0.344015
    124 C39        -6.5610    2.1540    0.0790 c3        1 MOL      0.058727
    125 C40        -6.6650    0.5990    0.1610 c         1 MOL      0.596528
    126 O19        -7.0800    0.0180    1.1550 o         1 MOL     -0.554356
    127 C41        -7.6210    2.8660   -0.7840 c3        1 MOL     -0.172549
    128 C42        -8.9540    2.3640   -0.3790 ca        1 MOL      0.060816
    129 C43        -9.5070    2.7000    0.8940 ca        1 MOL     -0.207378
    130 C44        -9.8090    1.7290   -1.2960 ca        1 MOL     -0.207378
    131 C45       -10.8090    2.2310    1.1860 ca        1 MOL     -0.222492
    132 C46       -10.9930    1.1530   -0.9550 ca        1 MOL     -0.222492
    133 C47       -11.5120    1.4140    0.3070 ca        1 MOL      0.371451
    134 O20       -12.8180    1.0940    0.4820 oh        1 MOL     -0.559136
    135 H56        -5.2470    3.2970   -1.1520 hn        1 MOL      0.226062
    136 H57        -6.5780    2.4310    1.1280 h1        1 MOL      0.048040
    137 H58        -7.4880    2.6660   -1.8490 hc        1 MOL      0.078794
    138 H59        -7.5620    3.9560   -0.6780 hc        1 MOL      0.078794
    139 H60        -8.9440    3.2950    1.6100 ha        1 MOL      0.149942
    140 H61        -9.3910    1.6300   -2.2900 ha        1 MOL      0.149942
    141 H62       -11.2100    2.5320    2.1490 ha        1 MOL      0.133497
    142 H63       -11.6280    0.5580   -1.5970 ha        1 MOL      0.133497
    143 H64       -13.1120    0.6320   -0.3060 ho        1 MOL      0.390462
    144 N13        -6.2320   -0.0880   -0.8940 n         1 MOL     -0.140140
    145 C48        -6.3930   -1.5430   -0.9390 c3        1 MOL     -0.325101
    146 C49        -5.3890   -2.3160   -0.0160 c         1 MOL      0.337398
    147 O21        -5.4300   -3.5520    0.1820 o         1 MOL     -0.520161
    148 C50        -6.3240   -2.0820   -2.4280 c3        1 MOL      0.215016
    149 C51        -7.4410   -1.5850   -3.3170 c3        1 MOL     -0.308000
    150 C52        -7.6330   -2.4340   -4.5580 c         1 MOL      0.775926
    151 O22        -8.2410   -3.5140   -4.4400 o         1 MOL     -0.756691
    152 O23        -7.1870   -2.0740   -5.6380 o         1 MOL     -0.756691
    153 H65        -5.8460    0.3210   -1.7380 hn        1 MOL      0.140828
    154 H66        -7.4060   -1.8390   -0.6770 h1        1 MOL      0.168068
    155 H67        -6.3800   -3.1690   -2.4560 hc        1 MOL      0.013586
    156 H68        -5.3410   -1.8940   -2.8690 hc        1 MOL      0.013586
    157 H69        -7.4030   -0.5030   -3.4390 hc        1 MOL      0.015490
    158 H70        -8.3510   -1.6540   -2.7100 hc        1 MOL      0.015490
    159 N14        -4.4450   -1.6260    0.6050 n         1 MOL      0.057201
    160 C53        -3.5590   -2.1210    1.6340 c3        1 MOL     -0.072381
    161 C54        -4.2830   -1.9150    3.0390 c         1 MOL      0.405150
    162 O24        -4.2180   -2.7590    3.9650 o         1 MOL     -0.534653
    163 C55        -2.1750   -1.5090    1.5340 c3        1 MOL     -0.081992
    164 C56        -1.5050   -1.8150    0.1580 c3        1 MOL      0.113222
    165 C57        -0.0840   -1.1770   -0.1040 c         1 MOL      0.766378
    166 O25         0.9290   -1.8770   -0.3420 o         1 MOL     -0.728020
    167 O26         0.0440    0.0620   -0.1430 o         1 MOL     -0.728020
    168 H71        -4.3290   -0.6860    0.2570 hn        1 MOL      0.098918
    169 H72        -3.4600   -3.2060    1.5190 h1        1 MOL      0.083950
    170 H73        -1.4580   -1.9020    2.2440 hc        1 MOL      0.065920
    171 H74        -2.1910   -0.4160    1.5780 hc        1 MOL      0.065920
    172 H75        -2.2400   -1.4810   -0.5710 hc        1 MOL     -0.086081
    173 H76        -1.4250   -2.8980    0.1110 hc        1 MOL     -0.086081
    174 N15        -4.9190   -0.7160    3.1990 n         1 MOL     -0.114657
    175 C58        -5.8060   -0.2420    4.3000 c3        1 MOL     -0.189938
    176 H77        -6.0750   -1.0840    4.9380 h1        1 MOL      0.075734
    177 H78        -5.2830    0.5090    4.8920 h1        1 MOL      0.075734
    178 H79        -6.7100    0.1950    3.8750 h1        1 MOL      0.075734
    179 H80        -5.0300   -0.1250    2.3950 hn        1 MOL      0.100183
    180 Ca1         2.4190    0.0760   -1.3190 Ca        1 MOL      1.725691
    181 O27         2.0490    2.7470   -2.3230 oh        1 MOL     -0.850262
    182 H81         2.9810    2.7750   -2.1210 ho        1 MOL      0.415176
    183 H82         1.9710    3.2180   -3.1570 ho        1 MOL      0.415176
    184 O28         0.6320   -0.1510   -3.3000 oh        1 MOL     -0.850262
    185 H83         1.1970    0.0760   -4.0410 ho        1 MOL      0.415176
    186 H84        -0.0120   -0.7590   -3.6710 ho        1 MOL      0.415176
@<TRIPOS>BOND
     1    1    2 1   
     2    1    4 1   
     3    1    5 1   
     4    1    6 1   
     5    2    3 2   
     6    2    7 1   
     7    7    8 1   
     8    7   15 1   
     9    8    9 1   
    10    8   11 1   
    11    8   16 1   
    12    9   10 2   
    13    9   19 1   
    14   11   12 1   
    15   11   17 1   
    16   11   18 1   
    17   12   13 1   
    18   12   14 1   
    19   19   20 1   
    20   19   27 1   
    21   20   21 1   
    22   20   23 1   
    23   20   28 1   
    24   21   22 2   
    25   21   38 1   
    26   23   24 1   
    27   23   25 1   
    28   23   29 1   
    29   24   26 1   
    30   24   30 1   
    31   24   31 1   
    32   25   32 1   
    33   25   33 1   
    34   25   34 1   
    35   26   35 1   
    36   26   36 1   
    37   26   37 1   
    38   38   39 1   
    39   38   46 1   
    40   39   40 1   
    41   39   42 1   
    42   39   47 1   
    43   40   41 2   
    44   40   50 1   
    45   42   43 1   
    46   42   48 1   
    47   42   49 1   
    48   43   44 1   
    49   43   45 1   
    50   50   51 1   
    51   50   54 1   
    52   51   52 1   
    53   51   55 1   
    54   51   56 1   
    55   52   53 2   
    56   52   57 1   
    57   57   58 1   
    58   57   65 1   
    59   58   59 1   
    60   58   61 1   
    61   58   66 1   
    62   59   60 2   
    63   59   69 1   
    64   61   62 1   
    65   61   67 1   
    66   61   68 1   
    67   62   63 1   
    68   62   64 1   
    69   69   70 1   
    70   69   73 1   
    71   70   71 1   
    72   70   74 1   
    73   70   75 1   
    74   71   72 2   
    75   71   76 1   
    76   76   77 1   
    77   76   85 1   
    78   77   78 1   
    79   77   80 1   
    80   77   86 1   
    81   78   79 2   
    82   78   93 1   
    83   80   81 1   
    84   80   87 1   
    85   80   88 1   
    86   81   82 1   
    87   81   89 1   
    88   81   90 1   
    89   82   83 1   
    90   82   84 2   
    91   83   91 1   
    92   83   92 1   
    93   93   94 1   
    94   93  100 1   
    95   94   95 1   
    96   94   97 1   
    97   94  101 1   
    98   95   96 2   
    99   95  109 1   
   100   97   98 1   
   101   97   99 1   
   102   97  102 1   
   103   98  103 1   
   104   98  104 1   
   105   98  105 1   
   106   99  106 1   
   107   99  107 1   
   108   99  108 1   
   109  109  110 1   
   110  109  117 1   
   111  110  111 1   
   112  110  113 1   
   113  110  118 1   
   114  111  112 2   
   115  111  123 1   
   116  113  114 1   
   117  113  119 1   
   118  113  120 1   
   119  114  115 1   
   120  114  116 2   
   121  115  121 1   
   122  115  122 1   
   123  123  124 1   
   124  123  135 1   
   125  124  125 1   
   126  124  127 1   
   127  124  136 1   
   128  125  126 2   
   129  125  144 1   
   130  127  128 1   
   131  127  137 1   
   132  127  138 1   
   133  128  129 ar  
   134  128  130 ar  
   135  129  131 ar  
   136  129  139 1   
   137  130  132 ar  
   138  130  140 1   
   139  131  133 ar  
   140  131  141 1   
   141  132  133 ar  
   142  132  142 1   
   143  133  134 1   
   144  134  143 1   
   145  144  145 1   
   146  144  153 1   
   147  145  146 1   
   148  145  148 1   
   149  145  154 1   
   150  146  147 2   
   151  146  159 1   
   152  148  149 1   
   153  148  155 1   
   154  148  156 1   
   155  149  150 1   
   156  149  157 1   
   157  149  158 1   
   158  150  151 1   
   159  150  152 1   
   160  159  160 1   
   161  159  168 1   
   162  160  161 1   
   163  160  163 1   
   164  160  169 1   
   165  161  162 2   
   166  161  174 1   
   167  163  164 1   
   168  163  170 1   
   169  163  171 1   
   170  164  165 1   
   171  164  172 1   
   172  164  173 1   
   173  165  166 1   
   174  165  167 1   
   175  174  175 1   
   176  174  179 1   
   177  175  176 1   
   178  175  177 1   
   179  175  178 1   
   180  181  182 1   
   181  181  183 1   
   182  184  185 1   
   183  184  186 1   
@<TRIPOS>SUBSTRUCTURE
     1 MOL         1 TEMP              0 ****  ****    0 ROOT
