@<TRIPOS>MOLECULE
MOL
  175   173     1     0     0
SMALL
resp


@<TRIPOS>ATOM
      1 C1         -1.3640    3.8500    6.0250 c3        1 MOL     -0.356113
      2 C2         -1.3320    3.5350    4.4830 c         1 MOL      0.701048
      3 O1         -0.3250    3.8500    3.7850 o         1 MOL     -0.585408
      4 H1         -2.3630    3.6560    6.4140 hc        1 MOL      0.084744
      5 H2         -0.6440    3.2130    6.5410 hc        1 MOL      0.084744
      6 H3         -1.1060    4.8960    6.1880 hc        1 MOL      0.084744
      7 N1         -2.4640    3.1280    3.9130 n         1 MOL     -0.593615
      8 C3         -2.6200    2.7860    2.4230 c3        1 MOL      0.182140
      9 C4         -2.9790    3.9960    1.5100 c         1 MOL      0.657071
     10 O2         -3.9130    4.7090    1.8600 o         1 MOL     -0.608553
     11 C5         -3.7550    1.7780    2.4190 c3        1 MOL     -0.121284
     12 C6         -4.1350    0.9500    1.2440 c         1 MOL      0.864174
     13 O3         -4.8480   -0.0760    1.4230 o         1 MOL     -0.735010
     14 O4         -3.7270    1.2430    0.0730 o         1 MOL     -0.735010
     15 H4         -3.2800    3.0070    4.4830 hn        1 MOL      0.317642
     16 H5         -1.7300    2.2900    2.0300 h1        1 MOL     -0.029042
     17 H6         -4.6590    2.2480    2.8260 hc        1 MOL     -0.008859
     18 H7         -3.4620    0.9680    3.0780 hc        1 MOL     -0.008859
     19 N2         -2.2230    4.1350    0.4230 n         1 MOL     -0.621984
     20 C7         -2.4760    5.1670   -0.5880 c3        1 MOL      0.352938
     21 C8         -3.6280    4.8620   -1.5790 c         1 MOL      0.384860
     22 O5         -3.8820    5.7710   -2.4380 o         1 MOL     -0.555422
     23 C9         -1.1010    5.4040   -1.2580 c3        1 MOL     -0.214000
     24 H8         -1.4580    3.4900    0.3610 hn        1 MOL      0.369012
     25 H9         -2.7870    6.0860   -0.1050 h1        1 MOL     -0.004030
     26 H10        -1.2450    6.3230   -1.8180 hc        1 MOL      0.058436
     27 H11        -0.2770    5.6370   -0.5840 hc        1 MOL      0.058436
     28 H12        -0.8350    4.6650   -2.0080 hc        1 MOL      0.058436
     29 N3         -4.2880    3.6850   -1.6040 n         1 MOL     -0.347593
     30 C10        -5.2880    3.3990   -2.6400 c3        1 MOL      0.006004
     31 C11        -6.5200    2.6180   -2.1510 c         1 MOL      0.430619
     32 O6         -7.3990    2.1500   -2.8340 o         1 MOL     -0.499940
     33 C12        -4.5960    2.5840   -3.7950 c3        1 MOL     -0.098635
     34 C13        -3.6920    1.4570   -3.2900 c         1 MOL      0.812176
     35 O7         -2.4650    1.6640   -2.9880 o         1 MOL     -0.777903
     36 O8         -4.2080    0.3710   -3.1120 o         1 MOL     -0.777903
     37 H13        -4.0200    3.0550   -0.8550 hn        1 MOL      0.231451
     38 H14        -5.6770    4.3580   -2.9810 h1        1 MOL      0.113049
     39 H15        -4.0250    3.2670   -4.4260 hc        1 MOL      0.018882
     40 H16        -5.3280    2.1270   -4.4640 hc        1 MOL      0.018882
     41 N4         -6.6040    2.4800   -0.7830 n         1 MOL     -0.297029
     42 C14        -7.7400    1.8710   -0.0990 c3        1 MOL     -0.092100
     43 C15        -7.9390    0.3410   -0.4440 c         1 MOL      0.462678
     44 O9         -9.0710   -0.1230   -0.2880 o         1 MOL     -0.567461
     45 H17        -5.7690    2.7160   -0.2760 hn        1 MOL      0.190053
     46 H18        -8.6320    2.3930   -0.4360 h1        1 MOL      0.090009
     47 H19        -7.7280    2.0320    0.9790 h1        1 MOL      0.090009
     48 N5         -6.9480   -0.4900   -0.8900 n         1 MOL     -0.179484
     49 C16        -7.1820   -1.9310   -1.1430 c3        1 MOL     -0.143928
     50 C17        -7.0990   -2.8550    0.0700 c         1 MOL      0.432786
     51 O10        -7.6190   -3.9670   -0.0080 o         1 MOL     -0.531535
     52 C18        -6.2690   -2.4110   -2.2810 c3        1 MOL     -0.307644
     53 C19        -4.8390   -2.8470   -1.8760 c         1 MOL      0.751403
     54 N6         -4.5580   -4.1290   -2.0240 n         1 MOL     -0.911196
     55 O11        -4.1110   -2.0500   -1.2620 o         1 MOL     -0.589175
     56 H20        -5.9940   -0.1610   -0.8910 hn        1 MOL      0.252175
     57 H21        -8.2320   -1.9580   -1.4650 h1        1 MOL      0.159380
     58 H22        -6.1980   -1.5830   -2.9960 hc        1 MOL      0.104886
     59 H23        -6.5860   -3.3290   -2.7700 hc        1 MOL      0.104886
     60 H24        -5.3050   -4.7000   -2.3830 hn        1 MOL      0.410466
     61 H25        -3.7480   -4.4900   -1.5350 hn        1 MOL      0.410466
     62 N7         -6.4660   -2.3730    1.1880 n         1 MOL     -0.126573
     63 C20        -6.2570   -3.2370    2.3090 c3        1 MOL     -0.192431
     64 C21        -4.8410   -3.8760    2.4700 c         1 MOL      0.551946
     65 O12        -4.6580   -4.6730    3.3630 o         1 MOL     -0.586949
     66 H26        -6.1080   -1.4370    1.2670 hn        1 MOL      0.182416
     67 H27        -6.9400   -4.0710    2.1360 h1        1 MOL      0.089891
     68 H28        -6.5280   -2.6520    3.1860 h1        1 MOL      0.089891
     69 N8         -3.8770   -3.4750    1.6480 n         1 MOL     -0.150599
     70 C22        -2.5250   -3.9000    1.7530 c3        1 MOL     -0.029752
     71 C23        -1.6230   -2.7130    1.3610 c         1 MOL      0.526923
     72 O13        -2.0970   -1.6530    0.8990 o         1 MOL     -0.528611
     73 C24        -2.2030   -5.2320    1.0330 c3        1 MOL      0.263450
     74 C25        -3.0190   -6.3340    1.4150 c3        1 MOL     -0.265537
     75 O14        -2.1340   -5.1110   -0.4090 oh        1 MOL     -0.702881
     76 H29        -4.1550   -2.7220    1.0280 hn        1 MOL      0.147883
     77 H30        -2.2610   -4.1280    2.7780 h1        1 MOL      0.059677
     78 H31        -1.1890   -5.4790    1.3620 h1        1 MOL      0.034836
     79 H32        -2.0570   -5.9970   -0.7720 ho        1 MOL      0.431344
     80 H33        -3.0250   -6.4640    2.5000 hc        1 MOL      0.076458
     81 H34        -4.0370   -6.2140    1.0550 hc        1 MOL      0.076458
     82 H35        -2.6600   -7.2990    1.0590 hc        1 MOL      0.076458
     83 N9         -0.3810   -2.7730    1.7710 n         1 MOL     -0.277706
     84 C26         0.7010   -1.9010    1.5050 c3        1 MOL     -0.077469
     85 C27         1.8250   -2.5660    0.6700 c         1 MOL      0.544653
     86 O15         2.2350   -3.7040    0.9110 o         1 MOL     -0.578576
     87 C28         1.1680   -1.1870    2.7740 c3        1 MOL      0.156586
     88 C29         1.7670   -2.1490    3.8510 c3        1 MOL     -0.519428
     89 C30         0.0620   -0.2280    3.3380 c3        1 MOL     -0.322736
     90 C31         2.2230   -1.5580    5.1170 c3        1 MOL      0.167317
     91 H36        -0.0540   -3.6560    2.1240 hn        1 MOL      0.217317
     92 H37         0.2990   -1.0500    0.9460 h1        1 MOL     -0.056883
     93 H38         1.9780   -0.5160    2.5060 hc        1 MOL      0.039964
     94 H39         2.6960   -2.5320    3.4330 hc        1 MOL      0.132824
     95 H40         1.1630   -3.0440    4.0500 hc        1 MOL      0.132824
     96 H41        -0.2110    0.5970    2.6820 hc        1 MOL      0.108154
     97 H42        -0.8120   -0.8230    3.5960 hc        1 MOL      0.108154
     98 H43         0.4230    0.3030    4.2200 hc        1 MOL      0.108154
     99 H44         2.8950   -0.7310    4.8700 hc        1 MOL     -0.021536
    100 H45         1.5130   -1.2240    5.8680 hc        1 MOL     -0.021536
    101 H46         2.8420   -2.1770    5.7710 hc        1 MOL     -0.021536
    102 N10         2.2430   -1.9890   -0.4940 n         1 MOL     -0.473171
    103 C32         3.4200   -2.2900   -1.2850 c3        1 MOL      0.205547
    104 C33         4.6500   -1.5760   -0.6580 c         1 MOL      0.460367
    105 O16         4.4230   -0.6250    0.1880 o         1 MOL     -0.436921
    106 C34         3.1050   -1.7250   -2.7430 c3        1 MOL     -0.411500
    107 C35         4.0820   -2.0370   -3.8760 c         1 MOL      0.749688
    108 O17         3.7200   -1.7660   -5.0480 o         1 MOL     -0.714325
    109 O18         5.2180   -2.3950   -3.7230 o         1 MOL     -0.714325
    110 H47         1.7790   -1.1410   -0.7900 hn        1 MOL      0.469596
    111 H48         3.7040   -3.3370   -1.3270 h1        1 MOL      0.047902
    112 H49         3.1010   -0.6370   -2.6040 hc        1 MOL      0.075728
    113 H50         2.0890   -1.9850   -3.0070 hc        1 MOL      0.075728
    114 N11         5.8830   -1.8770   -1.1110 n         1 MOL     -0.645324
    115 C36         7.1730   -1.2930   -0.5500 c3        1 MOL      0.425306
    116 C37         7.1850    0.2150   -0.3600 c         1 MOL      0.329307
    117 O19         7.4670    0.7040    0.7410 o         1 MOL     -0.477331
    118 C38         8.2910   -1.9770   -1.3850 c3        1 MOL     -0.124638
    119 C39         9.6550   -1.7590   -0.8220 ca        1 MOL     -0.003325
    120 C40        10.0420   -2.2680    0.4580 ca        1 MOL     -0.141658
    121 C41        10.3790   -0.7350   -1.4090 ca        1 MOL     -0.141658
    122 C42        11.2470   -1.8980    1.0290 ca        1 MOL     -0.089229
    123 C43        11.6530   -0.3370   -0.8820 ca        1 MOL     -0.089229
    124 C44        12.0710   -0.9650    0.3600 ca        1 MOL     -0.161124
    125 H51         5.9400   -2.5320   -1.8730 hn        1 MOL      0.302820
    126 H52         7.3450   -1.6700    0.4540 h1        1 MOL      0.005421
    127 H53         8.2630   -1.6950   -2.4370 hc        1 MOL      0.065287
    128 H54         8.1200   -3.0500   -1.3120 hc        1 MOL      0.065287
    129 H55         9.4220   -2.9910    0.9710 ha        1 MOL      0.110912
    130 H56        10.0370   -0.2000   -2.2840 ha        1 MOL      0.110912
    131 H57        11.6100   -2.3020    1.9600 ha        1 MOL      0.104781
    132 H58        12.3050    0.3640   -1.3700 ha        1 MOL      0.104781
    133 H59        13.0090   -0.6300    0.7940 ha        1 MOL      0.104811
    134 N12         6.7350    1.0410   -1.3690 n         1 MOL     -0.221073
    135 C45         6.7030    2.4590   -1.1360 c3        1 MOL      0.220932
    136 C46         5.8130    2.9630   -0.0180 c         1 MOL      0.134360
    137 O20         6.1670    3.8750    0.7600 o         1 MOL     -0.492906
    138 C47         6.2750    3.0880   -2.4770 c3        1 MOL      0.075961
    139 C48         6.6170    2.0270   -3.5530 c3        1 MOL     -0.254384
    140 C49         6.3080    0.7560   -2.7150 c3        1 MOL     -0.079547
    141 H60         7.7040    2.8500   -0.9570 h1        1 MOL      0.028742
    142 H61         5.1790    3.1290   -2.4290 hc        1 MOL     -0.010494
    143 H62         6.7600    4.0490   -2.5890 hc        1 MOL     -0.010494
    144 H63         5.9640    2.0900   -4.4300 hc        1 MOL      0.092378
    145 H64         7.6680    2.2320   -3.7650 hc        1 MOL      0.092378
    146 H65         5.2500    0.5400   -2.6500 h1        1 MOL      0.128317
    147 H66         6.7530   -0.1250   -3.1830 h1        1 MOL      0.128317
    148 N13         4.6550    2.3300    0.2600 n         1 MOL     -0.000530
    149 C50         3.6650    2.6450    1.3090 c3        1 MOL     -0.263880
    150 C51         4.2090    2.1350    2.6870 c         1 MOL      0.501355
    151 O21         4.0180    2.8120    3.7210 o         1 MOL     -0.567039
    152 C52         2.4020    1.9090    1.0290 c3        1 MOL      0.214920
    153 C53         1.6190    2.2630   -0.2230 c3        1 MOL     -0.209854
    154 C54         0.3580    1.4100   -0.4890 c         1 MOL      0.892235
    155 O22         0.3830    0.3670   -1.1260 o         1 MOL     -0.813271
    156 O23        -0.7160    1.8340   -0.1120 o         1 MOL     -0.813271
    157 H67         4.4670    1.6160   -0.4250 hn        1 MOL      0.187302
    158 H68         3.4640    3.7120    1.1940 h1        1 MOL      0.154517
    159 H69         1.7750    2.0160    1.9150 hc        1 MOL     -0.002813
    160 H70         2.6160    0.8430    0.9410 hc        1 MOL     -0.002813
    161 H71         2.2250    2.1950   -1.1260 hc        1 MOL      0.011746
    162 H72         1.2620    3.2850   -0.1220 hc        1 MOL      0.011746
    163 N14         4.9900    1.0070    2.6840 n         1 MOL      0.032902
    164 C55         5.5940    0.4170    3.8440 c3        1 MOL     -0.372373
    165 H73         6.6650    0.3020    3.6780 h1        1 MOL      0.118353
    166 H74         5.4280    1.0610    4.7080 h1        1 MOL      0.118353
    167 H75         5.1490   -0.5600    4.0290 h1        1 MOL      0.118353
    168 H76         5.1220    0.6820    1.7420 hn        1 MOL      0.049981
    169 Ca1        -2.1450   -0.2260   -1.3980 Ca        1 MOL      1.797784
    170 O24        -0.8370   -2.7040   -1.6260 oh        1 MOL     -0.875547
    171 H77        -0.5450   -3.0100   -2.4790 ho        1 MOL      0.417917
    172 H78        -1.1180   -3.4960   -1.1590 ho        1 MOL      0.417917
    173 O25        -1.9740   -1.3100   -4.1440 oh        1 MOL     -0.875547
    174 H79        -2.6170   -1.4060   -4.8470 ho        1 MOL      0.417917
    175 H80        -1.1510   -1.6120   -4.5250 ho        1 MOL      0.417917
@<TRIPOS>BOND
     1    1    2 1   
     2    1    4 1   
     3    1    5 1   
     4    1    6 1   
     5    2    3 2   
     6    2    7 1   
     7    7    8 1   
     8    7   15 1   
     9    8    9 1   
    10    8   11 1   
    11    8   16 1   
    12    9   10 2   
    13    9   19 1   
    14   11   12 1   
    15   11   17 1   
    16   11   18 1   
    17   12   13 1   
    18   12   14 1   
    19   19   20 1   
    20   19   24 1   
    21   20   21 1   
    22   20   23 1   
    23   20   25 1   
    24   21   22 2   
    25   21   29 1   
    26   23   26 1   
    27   23   27 1   
    28   23   28 1   
    29   29   30 1   
    30   29   37 1   
    31   30   31 1   
    32   30   33 1   
    33   30   38 1   
    34   31   32 2   
    35   31   41 1   
    36   33   34 1   
    37   33   39 1   
    38   33   40 1   
    39   34   35 1   
    40   34   36 1   
    41   41   42 1   
    42   41   45 1   
    43   42   43 1   
    44   42   46 1   
    45   42   47 1   
    46   43   44 2   
    47   43   48 1   
    48   48   49 1   
    49   48   56 1   
    50   49   50 1   
    51   49   52 1   
    52   49   57 1   
    53   50   51 2   
    54   50   62 1   
    55   52   53 1   
    56   52   58 1   
    57   52   59 1   
    58   53   54 1   
    59   53   55 2   
    60   54   60 1   
    61   54   61 1   
    62   62   63 1   
    63   62   66 1   
    64   63   64 1   
    65   63   67 1   
    66   63   68 1   
    67   64   65 2   
    68   64   69 1   
    69   69   70 1   
    70   69   76 1   
    71   70   71 1   
    72   70   73 1   
    73   70   77 1   
    74   71   72 2   
    75   71   83 1   
    76   73   74 1   
    77   73   75 1   
    78   73   78 1   
    79   74   80 1   
    80   74   81 1   
    81   74   82 1   
    82   75   79 1   
    83   83   84 1   
    84   83   91 1   
    85   84   85 1   
    86   84   87 1   
    87   84   92 1   
    88   85   86 2   
    89   85  102 1   
    90   87   88 1   
    91   87   89 1   
    92   87   93 1   
    93   88   90 1   
    94   88   94 1   
    95   88   95 1   
    96   89   96 1   
    97   89   97 1   
    98   89   98 1   
    99   90   99 1   
   100   90  100 1   
   101   90  101 1   
   102  102  103 1   
   103  102  110 1   
   104  103  104 1   
   105  103  106 1   
   106  103  111 1   
   107  104  105 2   
   108  104  114 1   
   109  106  107 1   
   110  106  112 1   
   111  106  113 1   
   112  107  108 1   
   113  107  109 1   
   114  114  115 1   
   115  114  125 1   
   116  115  116 1   
   117  115  118 1   
   118  115  126 1   
   119  116  117 2   
   120  116  134 1   
   121  118  119 1   
   122  118  127 1   
   123  118  128 1   
   124  119  120 ar  
   125  119  121 ar  
   126  120  122 ar  
   127  120  129 1   
   128  121  123 ar  
   129  121  130 1   
   130  122  124 ar  
   131  122  131 1   
   132  123  124 ar  
   133  123  132 1   
   134  124  133 1   
   135  134  135 1   
   136  134  140 1   
   137  135  136 1   
   138  135  138 1   
   139  135  141 1   
   140  136  137 2   
   141  136  148 1   
   142  138  139 1   
   143  138  142 1   
   144  138  143 1   
   145  139  140 1   
   146  139  144 1   
   147  139  145 1   
   148  140  146 1   
   149  140  147 1   
   150  148  149 1   
   151  148  157 1   
   152  149  150 1   
   153  149  152 1   
   154  149  158 1   
   155  150  151 2   
   156  150  163 1   
   157  152  153 1   
   158  152  159 1   
   159  152  160 1   
   160  153  154 1   
   161  153  161 1   
   162  153  162 1   
   163  154  155 1   
   164  154  156 1   
   165  163  164 1   
   166  163  168 1   
   167  164  165 1   
   168  164  166 1   
   169  164  167 1   
   170  170  171 1   
   171  170  172 1   
   172  173  174 1   
   173  173  175 1   
@<TRIPOS>SUBSTRUCTURE
     1 MOL         1 TEMP              0 ****  ****    0 ROOT
