@<TRIPOS>MOLECULE
MOL
  182   178     1     0     0
SMALL
resp


@<TRIPOS>ATOM
      1 C1          1.9440    1.3720    6.2790 c3        1 MOL     -0.325083
      2 C2          1.3930    1.3800    4.8350 c         1 MOL      0.857714
      3 O1          2.1360    1.4560    3.8910 o         1 MOL     -0.631909
      4 H1          2.9860    1.6900    6.2710 hc        1 MOL      0.080856
      5 H2          1.3600    2.0550    6.8950 hc        1 MOL      0.080856
      6 H3          1.8750    0.3640    6.6880 hc        1 MOL      0.080856
      7 N1          0.0390    1.5050    4.6620 n         1 MOL     -0.698384
      8 C3         -0.5680    1.6550    3.3380 c3        1 MOL      0.160041
      9 C4         -0.3890    3.0540    2.8920 c         1 MOL      0.594415
     10 O2         -0.7030    3.9820    3.6780 o         1 MOL     -0.572235
     11 C5         -2.0570    1.3470    3.2840 c3        1 MOL     -0.191320
     12 C6         -2.7770    1.2550    1.8850 c         1 MOL      0.719655
     13 O3         -2.1940    1.3630    0.7980 o         1 MOL     -0.711154
     14 O4         -4.0400    1.0170    2.0010 o         1 MOL     -0.711154
     15 H4         -0.6340    1.6070    5.4000 hn        1 MOL      0.332603
     16 H5         -0.1920    0.9090    2.6390 h1        1 MOL      0.035891
     17 H6         -2.6780    2.0900    3.7950 hc        1 MOL      0.053619
     18 H7         -2.2180    0.3910    3.7840 hc        1 MOL      0.053619
     19 N2          0.2030    3.1240    1.6790 n         1 MOL     -0.176619
     20 C7          0.8230    4.3340    1.1700 c3        1 MOL     -0.285573
     21 C8         -0.1800    5.3160    0.5200 c         1 MOL      0.639592
     22 O5          0.0980    6.4900    0.5420 o         1 MOL     -0.572806
     23 C9          1.9770    3.9500    0.2650 c3        1 MOL      0.161550
     24 C10         2.9850    5.1330    0.1290 c3        1 MOL     -0.321691
     25 C11         4.1150    4.7890   -0.8490 c3        1 MOL      0.045634
     26 C12         4.9770    5.9940   -1.3360 c3        1 MOL     -0.079463
     27 N3          4.3600    6.8750   -2.4170 n4        1 MOL     -0.454138
     28 H8          0.1260    2.2980    1.1170 hn        1 MOL      0.104530
     29 H9          1.2240    4.9150    1.9980 h1        1 MOL      0.140562
     30 H10         1.6720    3.7200   -0.7500 hc        1 MOL      0.072068
     31 H11         2.5240    3.0970    0.6740 hc        1 MOL      0.072068
     32 H12         3.3490    5.3010    1.1470 hc        1 MOL      0.097847
     33 H13         2.4520    6.0440   -0.1200 hc        1 MOL      0.097847
     34 H14         3.6830    4.3000   -1.7230 hc        1 MOL      0.050899
     35 H15         4.7650    4.0190   -0.4420 hc        1 MOL      0.050899
     36 H16         5.9700    5.6440   -1.6080 hx        1 MOL      0.137323
     37 H17         5.1420    6.6450   -0.4870 hx        1 MOL      0.137323
     38 H18         4.1420    6.3390   -3.2330 hn        1 MOL      0.350116
     39 H19         3.5330    7.3810   -2.1420 hn        1 MOL      0.350116
     40 H20         4.9000    7.7020   -2.6380 hn        1 MOL      0.350116
     41 N4         -1.3240    4.8380    0.0480 n         1 MOL     -0.460988
     42 C13        -2.3580    5.4580   -0.8670 c3        1 MOL      0.088231
     43 C14        -3.7810    5.0610   -0.5540 c         1 MOL      0.420281
     44 O6         -4.7500    5.5800   -1.1090 o         1 MOL     -0.513533
     45 C15        -2.0130    5.2360   -2.3270 c3        1 MOL     -0.324086
     46 C16        -2.0520    3.7340   -2.7740 c         1 MOL      0.805750
     47 O7         -2.1110    3.5140   -3.9920 o         1 MOL     -0.713670
     48 O8         -2.0200    2.8490   -1.8620 o         1 MOL     -0.713670
     49 H21        -1.3220    3.8310    0.0680 hn        1 MOL      0.168296
     50 H22        -2.4110    6.5210   -0.6680 h1        1 MOL      0.101808
     51 H23        -1.0540    5.6920   -2.5560 hc        1 MOL      0.083545
     52 H24        -2.7870    5.7180   -2.9300 hc        1 MOL      0.083545
     53 N5         -3.9150    4.1350    0.4270 n         1 MOL     -0.096433
     54 C17        -5.1690    3.9750    1.1470 c3        1 MOL     -0.306146
     55 C18        -6.1790    3.0090    0.5160 c         1 MOL      0.619804
     56 O9         -7.4120    3.1880    0.7350 o         1 MOL     -0.557882
     57 H25        -3.0850    3.7140    0.8180 hn        1 MOL      0.156276
     58 H26        -5.6170    4.9660    1.2020 h1        1 MOL      0.132035
     59 H27        -4.7830    3.6810    2.1240 h1        1 MOL      0.132035
     60 N6         -5.6870    2.2600   -0.5050 n         1 MOL     -0.361197
     61 C19        -6.4280    1.1850   -1.2510 c3        1 MOL      0.031622
     62 C20        -6.7400   -0.1150   -0.4780 c         1 MOL      0.444647
     63 O10        -7.4130   -0.9790   -1.0740 o         1 MOL     -0.541076
     64 C21        -5.7530    0.9670   -2.5840 c3        1 MOL     -0.299602
     65 C22        -4.7030   -0.0730   -2.4760 c         1 MOL      0.570158
     66 N7         -4.6630   -0.9990   -3.4380 n         1 MOL     -0.717332
     67 O11        -3.9120   -0.1700   -1.5290 o         1 MOL     -0.608570
     68 H28        -4.6880    2.1270   -0.5080 hn        1 MOL      0.235399
     69 H29        -7.4380    1.5780   -1.3570 h1        1 MOL      0.113802
     70 H30        -5.3510    1.8670   -3.0550 hc        1 MOL      0.136899
     71 H31        -6.5280    0.5750   -3.2490 hc        1 MOL      0.136899
     72 H32        -5.2940   -0.9880   -4.2150 hn        1 MOL      0.355002
     73 H33        -3.9130   -1.6810   -3.4640 hn        1 MOL      0.355002
     74 N8         -6.1470   -0.3330    0.6890 n         1 MOL     -0.317841
     75 C23        -6.4020   -1.5010    1.6260 c3        1 MOL     -0.029024
     76 C24        -5.2340   -2.5530    1.6960 c         1 MOL      0.479369
     77 O12        -5.3630   -3.5590    2.3760 o         1 MOL     -0.534815
     78 H34        -5.4030    0.2830    0.9850 hn        1 MOL      0.267683
     79 H35        -7.3200   -2.0300    1.3710 h1        1 MOL      0.092994
     80 H36        -6.6770   -1.2040    2.6400 h1        1 MOL      0.092994
     81 N9         -4.1610   -2.3670    0.9520 n         1 MOL     -0.350925
     82 C25        -3.0780   -3.3280    0.8030 c3        1 MOL      0.126132
     83 C26        -1.7230   -2.7590    0.7160 c         1 MOL      0.532905
     84 O13        -1.4610   -1.8300   -0.0450 o         1 MOL     -0.572101
     85 C27        -3.2720   -4.0300   -0.5620 c3        1 MOL      0.101899
     86 C28        -4.6170   -4.6490   -0.8490 ca        1 MOL     -0.071889
     87 C29        -4.7310   -5.9570   -0.3740 ca        1 MOL     -0.205206
     88 C30        -5.6950   -3.9260   -1.3200 ca        1 MOL     -0.205206
     89 C31        -5.9600   -6.5800   -0.3230 ca        1 MOL     -0.072739
     90 C32        -6.9710   -4.5200   -1.2430 ca        1 MOL     -0.072739
     91 C33        -7.0890   -5.8710   -0.8070 ca        1 MOL      0.150008
     92 O14        -8.3230   -6.4140   -0.5920 oh        1 MOL     -0.467903
     93 H37        -4.0430   -1.5080    0.4440 hn        1 MOL      0.223328
     94 H38        -3.1230   -4.0900    1.5700 h1        1 MOL      0.058969
     95 H39        -2.4380   -4.7250   -0.6650 hc        1 MOL     -0.005317
     96 H40        -3.0410   -3.2320   -1.2710 hc        1 MOL     -0.005317
     97 H41        -3.8530   -6.4400    0.0220 ha        1 MOL      0.134318
     98 H42        -5.5160   -2.8730   -1.4940 ha        1 MOL      0.134318
     99 H43        -6.0700   -7.5760    0.0790 ha        1 MOL      0.111181
    100 H44        -7.8680   -3.9800   -1.5170 ha        1 MOL      0.111181
    101 H45        -8.9750   -5.7550   -0.8490 ho        1 MOL      0.370350
    102 N10        -0.7590   -3.4330    1.3820 n         1 MOL     -0.519960
    103 C34         0.6390   -3.0290    1.4040 c3        1 MOL      0.022012
    104 C35         1.3800   -3.8620    0.3860 c         1 MOL      0.656439
    105 O15         1.1390   -4.9530    0.1580 o         1 MOL     -0.561040
    106 C36         1.1780   -3.1170    2.8610 c3        1 MOL      0.151671
    107 C37         0.2870   -2.2750    3.8680 c3        1 MOL      0.242129
    108 C38         2.6420   -2.7590    2.9760 c3        1 MOL     -0.306113
    109 C39         0.3960   -2.9020    5.2930 c3        1 MOL     -0.236955
    110 H46        -1.0770   -4.1770    1.9880 hn        1 MOL      0.267856
    111 H47         0.6820   -2.0010    1.0390 h1        1 MOL      0.072669
    112 H48         1.1410   -4.1570    3.1870 hc        1 MOL     -0.005951
    113 H49        -0.7340   -2.2250    3.4890 hc        1 MOL     -0.061707
    114 H50         0.5100   -1.2100    3.8750 hc        1 MOL     -0.061707
    115 H51         2.8580   -2.5780    4.0340 hc        1 MOL      0.041770
    116 H52         3.2320   -3.5070    2.4480 hc        1 MOL      0.041770
    117 H53         2.7520   -1.8010    2.4480 hc        1 MOL      0.041770
    118 H54        -0.1900   -3.8220    5.3470 hc        1 MOL      0.051438
    119 H55         1.4170   -2.9020    5.6680 hc        1 MOL      0.051438
    120 H56        -0.1270   -2.2040    5.9350 hc        1 MOL      0.051438
    121 N11         2.4480   -3.2760   -0.1730 n         1 MOL     -0.381052
    122 C40         3.3470   -4.0090   -1.1300 c3        1 MOL     -0.131304
    123 C41         4.8030   -3.7230   -0.7000 c         1 MOL      0.488026
    124 O16         5.0730   -2.8500    0.1260 o         1 MOL     -0.467806
    125 C42         3.1020   -3.5220   -2.5750 c3        1 MOL     -0.217233
    126 O17         3.2320   -2.1320   -2.7410 oh        1 MOL     -0.522806
    127 H57         2.7920   -2.3430    0.0200 hn        1 MOL      0.519437
    128 H58         3.2740   -5.0950   -1.1330 h1        1 MOL      0.106510
    129 H59         2.0850   -3.6430   -2.9650 h1        1 MOL      0.146217
    130 H60         3.8090   -3.9750   -3.2630 h1        1 MOL      0.146217
    131 H61         2.5740   -1.6830   -2.2020 ho        1 MOL      0.348022
    132 N12         5.7600   -4.2990   -1.3410 n         1 MOL     -0.382971
    133 C43         7.1460   -4.0970   -1.0170 c3        1 MOL      0.126924
    134 C44         7.7350   -2.6250   -1.1100 c         1 MOL      0.396927
    135 O18         8.4040   -2.1430   -0.1490 o         1 MOL     -0.496956
    136 C45         7.8890   -5.0400   -1.9490 c3        1 MOL     -0.343780
    137 H62         5.4460   -4.9300   -2.0580 hn        1 MOL      0.281838
    138 H63         7.3950   -4.3870    0.0020 h1        1 MOL      0.086790
    139 H64         8.9240   -5.1110   -1.6380 hc        1 MOL      0.099730
    140 H65         7.4930   -6.0580   -1.8720 hc        1 MOL      0.099730
    141 H66         7.8300   -4.7170   -2.9940 hc        1 MOL      0.099730
    142 N13         7.5020   -1.9570   -2.1920 n         1 MOL     -0.312787
    143 C46         7.9500   -0.5830   -2.2650 c3        1 MOL     -0.011605
    144 C47         7.2610    0.3030   -1.2460 c         1 MOL      0.397314
    145 O19         7.8270    1.3030   -0.7880 o         1 MOL     -0.518409
    146 C48         7.8960   -0.0550   -3.7070 c3        1 MOL     -0.266697
    147 H67         7.1460   -2.4380   -3.0020 hn        1 MOL      0.307051
    148 H68         9.0040   -0.5810   -1.9880 h1        1 MOL      0.132150
    149 H69         8.3440    0.9380   -3.7600 hc        1 MOL      0.081324
    150 H70         8.3960   -0.7450   -4.3910 hc        1 MOL      0.081324
    151 H71         6.9010   -0.0040   -4.1510 hc        1 MOL      0.081324
    152 N14         6.1100   -0.0470   -0.6670 n         1 MOL     -0.034394
    153 C49         5.4010    0.6980    0.4060 c3        1 MOL     -0.329539
    154 C50         6.2140    0.4830    1.6900 c         1 MOL      0.602962
    155 O20         6.4420    1.3610    2.4960 o         1 MOL     -0.548533
    156 C51         3.9570    0.1790    0.4850 c3        1 MOL      0.175339
    157 C52         3.2180    0.6680   -0.7200 c3        1 MOL      0.088279
    158 C53         1.7470    0.2930   -0.6500 c         1 MOL      0.586916
    159 O21         0.9760    0.9630    0.0310 o         1 MOL     -0.712676
    160 O22         1.2660   -0.6860   -1.3110 o         1 MOL     -0.712676
    161 H72         5.6560   -0.9220   -0.8790 hn        1 MOL      0.099146
    162 H73         5.4500    1.7720    0.2260 h1        1 MOL      0.137923
    163 H74         3.4830    0.7570    1.2840 hc        1 MOL     -0.004594
    164 H75         3.9040   -0.8990    0.6140 hc        1 MOL     -0.004594
    165 H76         3.6600    0.2040   -1.5920 hc        1 MOL     -0.112384
    166 H77         3.2900    1.7520   -0.7260 hc        1 MOL     -0.112384
    167 N15         6.6040   -0.7920    1.9030 n         1 MOL     -0.190034
    168 C54         7.5820   -1.0170    2.9870 c3        1 MOL     -0.555452
    169 H78         8.5400   -0.5780    2.7080 h1        1 MOL      0.191748
    170 H79         7.2230   -0.5490    3.9040 h1        1 MOL      0.191748
    171 H80         7.7060   -2.0870    3.1490 h1        1 MOL      0.191748
    172 H81         6.3500   -1.4700    1.2060 hn        1 MOL      0.207379
    173 Ca1        -1.1070    0.5160   -1.4700 Ca        1 MOL      1.806507
    174 O23        -1.1730   -1.8700   -2.8440 oh        1 MOL     -0.803892
    175 H82        -0.8420   -1.9340   -3.7430 ho        1 MOL      0.387759
    176 H83        -1.3000   -2.7790   -2.5710 ho        1 MOL      0.387759
    177 O24         0.5740    1.6190   -3.2840 oh        1 MOL     -0.803892
    178 H84         0.4070    1.2730   -4.1620 ho        1 MOL      0.387759
    179 H85         0.9900    2.4610   -3.4260 ho        1 MOL      0.387759
    180 O25        -1.9030    0.8650   -4.4300 oh        1 MOL     -0.803892
    181 H86        -1.6020    0.8180   -5.3420 ho        1 MOL      0.387759
    182 H87        -2.1270    1.7800   -4.3080 ho        1 MOL      0.387759
@<TRIPOS>BOND
     1    1    2 1   
     2    1    4 1   
     3    1    5 1   
     4    1    6 1   
     5    2    3 2   
     6    2    7 1   
     7    7    8 1   
     8    7   15 1   
     9    8    9 1   
    10    8   11 1   
    11    8   16 1   
    12    9   10 2   
    13    9   19 1   
    14   11   12 1   
    15   11   17 1   
    16   11   18 1   
    17   12   13 1   
    18   12   14 1   
    19   19   20 1   
    20   19   28 1   
    21   20   21 1   
    22   20   23 1   
    23   20   29 1   
    24   21   22 2   
    25   21   41 1   
    26   23   24 1   
    27   23   30 1   
    28   23   31 1   
    29   24   25 1   
    30   24   32 1   
    31   24   33 1   
    32   25   26 1   
    33   25   34 1   
    34   25   35 1   
    35   26   27 1   
    36   26   36 1   
    37   26   37 1   
    38   27   38 1   
    39   27   39 1   
    40   27   40 1   
    41   41   42 1   
    42   41   49 1   
    43   42   43 1   
    44   42   45 1   
    45   42   50 1   
    46   43   44 2   
    47   43   53 1   
    48   45   46 1   
    49   45   51 1   
    50   45   52 1   
    51   46   47 1   
    52   46   48 1   
    53   53   54 1   
    54   53   57 1   
    55   54   55 1   
    56   54   58 1   
    57   54   59 1   
    58   55   56 2   
    59   55   60 1   
    60   60   61 1   
    61   60   68 1   
    62   61   62 1   
    63   61   64 1   
    64   61   69 1   
    65   62   63 2   
    66   62   74 1   
    67   64   65 1   
    68   64   70 1   
    69   64   71 1   
    70   65   66 1   
    71   65   67 2   
    72   66   72 1   
    73   66   73 1   
    74   74   75 1   
    75   74   78 1   
    76   75   76 1   
    77   75   79 1   
    78   75   80 1   
    79   76   77 2   
    80   76   81 1   
    81   81   82 1   
    82   81   93 1   
    83   82   83 1   
    84   82   85 1   
    85   82   94 1   
    86   83   84 2   
    87   83  102 1   
    88   85   86 1   
    89   85   95 1   
    90   85   96 1   
    91   86   87 ar  
    92   86   88 ar  
    93   87   89 ar  
    94   87   97 1   
    95   88   90 ar  
    96   88   98 1   
    97   89   91 ar  
    98   89   99 1   
    99   90   91 ar  
   100   90  100 1   
   101   91   92 1   
   102   92  101 1   
   103  102  103 1   
   104  102  110 1   
   105  103  104 1   
   106  103  106 1   
   107  103  111 1   
   108  104  105 2   
   109  104  121 1   
   110  106  107 1   
   111  106  108 1   
   112  106  112 1   
   113  107  109 1   
   114  107  113 1   
   115  107  114 1   
   116  108  115 1   
   117  108  116 1   
   118  108  117 1   
   119  109  118 1   
   120  109  119 1   
   121  109  120 1   
   122  121  122 1   
   123  121  127 1   
   124  122  123 1   
   125  122  125 1   
   126  122  128 1   
   127  123  124 2   
   128  123  132 1   
   129  125  126 1   
   130  125  129 1   
   131  125  130 1   
   132  126  131 1   
   133  132  133 1   
   134  132  137 1   
   135  133  134 1   
   136  133  136 1   
   137  133  138 1   
   138  134  135 2   
   139  134  142 1   
   140  136  139 1   
   141  136  140 1   
   142  136  141 1   
   143  142  143 1   
   144  142  147 1   
   145  143  144 1   
   146  143  146 1   
   147  143  148 1   
   148  144  145 2   
   149  144  152 1   
   150  146  149 1   
   151  146  150 1   
   152  146  151 1   
   153  152  153 1   
   154  152  161 1   
   155  153  154 1   
   156  153  156 1   
   157  153  162 1   
   158  154  155 2   
   159  154  167 1   
   160  156  157 1   
   161  156  163 1   
   162  156  164 1   
   163  157  158 1   
   164  157  165 1   
   165  157  166 1   
   166  158  159 1   
   167  158  160 1   
   168  167  168 1   
   169  167  172 1   
   170  168  169 1   
   171  168  170 1   
   172  168  171 1   
   173  174  175 1   
   174  174  176 1   
   175  177  178 1   
   176  177  179 1   
   177  180  181 1   
   178  180  182 1   
@<TRIPOS>SUBSTRUCTURE
     1 MOL         1 TEMP              0 ****  ****    0 ROOT
