@<TRIPOS>MOLECULE
MOL
  189   185     1     0     0
SMALL
resp


@<TRIPOS>ATOM
      1 C1          0.4620    2.1660    5.4660 c3        1 MOL     -0.594853
      2 C2         -0.0120    2.0510    3.9680 c         1 MOL      0.744481
      3 O1          0.7960    2.2970    3.0690 o         1 MOL     -0.601629
      4 H1         -0.3920    2.0280    6.1290 hc        1 MOL      0.150809
      5 H2          1.2090    1.3990    5.6710 hc        1 MOL      0.150809
      6 H3          0.8970    3.1510    5.6350 hc        1 MOL      0.150809
      7 N1         -1.2830    1.7200    3.7970 n         1 MOL     -0.558812
      8 C3         -2.0660    1.4610    2.5640 c3        1 MOL      0.135437
      9 C4         -2.5250    2.8640    2.0490 c         1 MOL      0.352755
     10 O2         -3.6620    3.2520    2.3640 o         1 MOL     -0.485695
     11 C5         -3.1660    0.4770    2.8810 c3        1 MOL     -0.230649
     12 C6         -4.0080    0.0440    1.6110 c         1 MOL      0.656771
     13 O3         -3.4900    0.0980    0.4540 o         1 MOL     -0.641184
     14 O4         -5.1770   -0.3930    1.8590 o         1 MOL     -0.641184
     15 H4         -1.7870    1.4660    4.6380 hn        1 MOL      0.315728
     16 H5         -1.5040    0.9600    1.7870 h1        1 MOL      0.027800
     17 H6         -3.8810    0.8730    3.6030 hc        1 MOL      0.070378
     18 H7         -2.7750   -0.4540    3.2820 hc        1 MOL      0.070378
     19 N2         -1.6890    3.5290    1.2660 n         1 MOL     -0.099907
     20 C7         -1.9120    4.9310    0.8880 c3        1 MOL     -0.130395
     21 C8         -2.9710    5.0910   -0.2470 c         1 MOL      0.420337
     22 O5         -3.6310    6.1390   -0.2110 o         1 MOL     -0.534559
     23 C9         -0.5740    5.5600    0.4470 c3        1 MOL     -0.100615
     24 C10         0.7770    5.5780    1.3110 c3        1 MOL     -0.017849
     25 C11         0.5100    6.2510    2.6830 c3        1 MOL      0.129844
     26 C12         1.7580    6.5830    3.4920 c3        1 MOL     -0.111939
     27 N3          1.3660    7.1320    4.7930 n4        1 MOL     -0.209447
     28 H8         -0.7830    3.1050    1.1250 hn        1 MOL      0.235792
     29 H9         -2.3620    5.4420    1.7340 h1        1 MOL      0.099557
     30 H10        -0.8180    6.5840    0.1820 hc        1 MOL      0.054076
     31 H11        -0.2630    5.0730   -0.4770 hc        1 MOL      0.054076
     32 H12         1.3990    6.2900    0.7600 hc        1 MOL      0.013144
     33 H13         1.2860    4.6200    1.4310 hc        1 MOL      0.013144
     34 H14        -0.1570    5.5780    3.2240 hc        1 MOL     -0.005723
     35 H15        -0.0700    7.1610    2.5140 hc        1 MOL     -0.005723
     36 H16         2.2670    7.3630    2.9380 hx        1 MOL      0.116430
     37 H17         2.3070    5.6570    3.6530 hx        1 MOL      0.116430
     38 H18         0.6370    7.8190    4.7900 hn        1 MOL      0.289591
     39 H19         1.1720    6.3770    5.4410 hn        1 MOL      0.289591
     40 H20         2.1210    7.6870    5.1690 hn        1 MOL      0.289591
     41 N4         -3.1810    4.0780   -1.0910 n         1 MOL     -0.231402
     42 C13        -4.3450    4.0830   -1.9950 c3        1 MOL      0.018190
     43 C14        -5.5610    3.3240   -1.5390 c         1 MOL      0.510830
     44 O6         -6.6510    3.5430   -1.9790 o         1 MOL     -0.558945
     45 C15        -3.9000    3.6730   -3.4660 c3        1 MOL     -0.278902
     46 C16        -3.0000    2.4370   -3.5870 c         1 MOL      0.781497
     47 O7         -2.7290    1.7630   -2.5360 o         1 MOL     -0.723669
     48 O8         -2.3800    2.2270   -4.6940 o         1 MOL     -0.723669
     49 H21        -2.5580    3.2850   -1.0090 hn        1 MOL      0.174759
     50 H22        -4.7530    5.0990   -2.0780 h1        1 MOL      0.082422
     51 H23        -3.3750    4.5010   -3.9250 hc        1 MOL      0.077842
     52 H24        -4.7810    3.4700   -4.0780 hc        1 MOL      0.077842
     53 N5         -5.4100    2.4930   -0.5580 n         1 MOL      0.051045
     54 C17        -6.5210    1.9420    0.0810 c3        1 MOL     -0.320026
     55 C18        -7.1070    0.7440   -0.6500 c         1 MOL      0.748606
     56 O9         -8.0930    0.8300   -1.3440 o         1 MOL     -0.596890
     57 H25        -4.4890    2.1320   -0.3610 hn        1 MOL     -0.032918
     58 H26        -7.2880    2.6690    0.3110 h1        1 MOL      0.102261
     59 H27        -6.1480    1.5810    1.0410 h1        1 MOL      0.102261
     60 N6         -6.5370   -0.3920   -0.4690 n         1 MOL     -0.597373
     61 C19        -7.0680   -1.6630   -1.0520 c3        1 MOL      0.159673
     62 C20        -6.9040   -2.9150   -0.2030 c         1 MOL      0.288250
     63 O10        -7.4160   -3.9220   -0.7140 o         1 MOL     -0.524760
     64 C21        -6.3750   -1.8500   -2.4520 c3        1 MOL     -0.279706
     65 C22        -4.8380   -1.6210   -2.2810 c         1 MOL      0.723625
     66 O11        -4.1170   -0.9210   -3.0240 o         1 MOL     -0.710086
     67 O12        -4.2430   -2.2290   -1.3610 o         1 MOL     -0.710086
     68 H28        -5.6370   -0.3980   -0.0210 hn        1 MOL      0.329340
     69 H29        -8.1420   -1.5000   -1.1150 h1        1 MOL      0.087960
     70 H30        -6.8290   -1.0840   -3.0890 hc        1 MOL      0.088571
     71 H31        -6.6550   -2.8120   -2.9010 hc        1 MOL      0.088571
     72 N7         -6.3930   -2.8440    0.9960 n         1 MOL     -0.066194
     73 C23        -6.3030   -3.9970    1.8830 c3        1 MOL     -0.230995
     74 C24        -5.0090   -4.6900    1.7240 c         1 MOL      0.604033
     75 O13        -4.9010   -5.8570    2.1470 o         1 MOL     -0.583034
     76 H32        -6.1660   -1.9000    1.2680 hn        1 MOL      0.184573
     77 H33        -6.9660   -4.7970    1.5810 h1        1 MOL      0.112495
     78 H34        -6.4850   -3.6930    2.9120 h1        1 MOL      0.112495
     79 N8         -3.9840   -4.0970    1.1360 n         1 MOL     -0.348763
     80 C25        -2.6920   -4.7110    0.8600 c3        1 MOL     -0.245379
     81 C26        -1.5460   -3.6050    0.8520 c         1 MOL      0.679328
     82 O14        -1.7440   -2.5050    0.3210 o         1 MOL     -0.654344
     83 C27        -2.5140   -5.2900   -0.5590 c3        1 MOL      0.586123
     84 C28        -2.9080   -6.8270   -0.4620 c3        1 MOL     -0.471084
     85 O15        -3.3970   -4.7310   -1.5190 oh        1 MOL     -0.662257
     86 H35        -4.0550   -3.1230    0.8710 hn        1 MOL      0.265010
     87 H36        -2.5220   -5.4840    1.6030 h1        1 MOL      0.122039
     88 H37        -1.4650   -5.2360   -0.8600 h1        1 MOL     -0.037780
     89 H38        -3.7940   -3.9650   -1.1200 ho        1 MOL      0.467954
     90 H39        -3.9650   -6.9090   -0.2450 hc        1 MOL      0.110341
     91 H40        -2.6750   -7.2950   -1.4260 hc        1 MOL      0.110341
     92 H41        -2.4050   -7.4680    0.2690 hc        1 MOL      0.110341
     93 N9         -0.3200   -3.9350    1.3530 n         1 MOL     -0.702506
     94 C29         0.7930   -3.0160    1.4150 c3        1 MOL      0.203350
     95 C30         1.9390   -3.6350    0.6440 c         1 MOL      0.490304
     96 O16         2.2820   -4.8040    0.8740 o         1 MOL     -0.559389
     97 C31         1.1730   -2.9750    2.9070 c3        1 MOL      0.036614
     98 C32         0.0130   -2.2850    3.7960 c3        1 MOL      0.287962
     99 C33         2.5290   -2.3290    3.0700 c3        1 MOL     -0.204057
    100 C34         0.2330   -2.4210    5.2760 c3        1 MOL     -0.292155
    101 H42        -0.2320   -4.8820    1.7080 hn        1 MOL      0.315992
    102 H43         0.4840   -2.0500    1.0150 h1        1 MOL      0.080665
    103 H44         1.3100   -3.9750    3.3110 hc        1 MOL      0.020380
    104 H45        -0.9430   -2.7640    3.6040 hc        1 MOL     -0.043233
    105 H46        -0.1490   -1.2440    3.5040 hc        1 MOL     -0.043233
    106 H47         3.2570   -2.9890    2.5870 hc        1 MOL      0.038365
    107 H48         2.4690   -1.3700    2.5650 hc        1 MOL      0.038365
    108 H49         2.8590   -2.3360    4.1140 hc        1 MOL      0.038365
    109 H50         0.2810   -3.4940    5.4490 hc        1 MOL      0.055278
    110 H51         1.1370   -1.8970    5.5670 hc        1 MOL      0.055278
    111 H52        -0.6380   -2.0320    5.8070 hc        1 MOL      0.055278
    112 N10         2.5120   -2.8150   -0.2240 n         1 MOL     -0.122929
    113 C35         3.7350   -3.0690   -1.0670 c3        1 MOL     -0.211479
    114 C36         4.9620   -2.5820   -0.2940 c         1 MOL      0.337565
    115 O17         4.8630   -1.8070    0.6290 o         1 MOL     -0.308197
    116 C37         3.6420   -2.2260   -2.3560 c3        1 MOL      0.267900
    117 C38         2.4370   -2.6240   -3.2270 c3        1 MOL     -0.108536
    118 O18         3.3700   -0.8580   -2.0500 oh        1 MOL     -0.507811
    119 H53         2.0500   -1.9470   -0.4190 hn        1 MOL      0.093559
    120 H54         3.7730   -4.1410   -1.2730 h1        1 MOL      0.115309
    121 H55         4.5160   -2.4330   -2.9670 h1        1 MOL      0.015186
    122 H56         2.4130   -0.8360   -1.9720 ho        1 MOL      0.314327
    123 H57         2.4580   -1.8580   -3.9990 hc        1 MOL      0.041945
    124 H58         2.5520   -3.6040   -3.6910 hc        1 MOL      0.041945
    125 H59         1.4980   -2.7140   -2.6960 hc        1 MOL      0.041945
    126 N11         6.1930   -2.9730   -0.7150 n         1 MOL     -0.145376
    127 C39         7.4550   -2.5290   -0.0490 c3        1 MOL     -0.397776
    128 C40         7.7850   -1.0620   -0.2880 c         1 MOL      0.518397
    129 O19         8.3260   -0.4530    0.5800 o         1 MOL     -0.490777
    130 C41         8.7070   -3.2700   -0.4620 c3        1 MOL      0.428561
    131 C42         8.8880   -4.6130    0.1860 c3        1 MOL     -0.429059
    132 O20         8.7520   -3.4240   -1.8470 oh        1 MOL     -0.665566
    133 H60         6.2030   -3.7990   -1.2970 hn        1 MOL      0.254344
    134 H61         7.3750   -2.6890    1.0240 h1        1 MOL      0.194294
    135 H62         9.5880   -2.6570   -0.2660 h1        1 MOL      0.037010
    136 H63         9.6260   -3.7400   -2.1050 ho        1 MOL      0.417746
    137 H64         8.8200   -4.3980    1.2570 hc        1 MOL      0.116297
    138 H65         8.0500   -5.1900   -0.1850 hc        1 MOL      0.116297
    139 H66         9.8970   -4.9620   -0.0380 hc        1 MOL      0.116297
    140 N12         7.2670   -0.5010   -1.4320 n         1 MOL     -0.423478
    141 C43         7.0820    0.9190   -1.6510 c3        1 MOL      0.308355
    142 C44         6.2710    1.6580   -0.5700 c         1 MOL      0.108592
    143 O21         6.5490    2.7490   -0.1080 o         1 MOL     -0.479535
    144 C45         6.4500    1.0580   -3.1060 c3        1 MOL     -0.459083
    145 C46         5.5300    2.3250   -3.2420 c3        1 MOL      0.029904
    146 C47         5.1380    2.6540   -4.6880 c3        1 MOL      0.031504
    147 C48         4.1470    3.8280   -4.7450 c3        1 MOL      0.081810
    148 N13         3.7880    4.2720   -6.1120 n4        1 MOL     -0.324351
    149 H67         6.8140   -1.1410   -2.0700 hn        1 MOL      0.224601
    150 H68         8.0980    1.3140   -1.6790 h1        1 MOL      0.069512
    151 H69         5.9550    0.1280   -3.3960 hc        1 MOL      0.138116
    152 H70         7.2630    1.3900   -3.7580 hc        1 MOL      0.138116
    153 H71         6.2160    3.1300   -2.9880 hc        1 MOL      0.037298
    154 H72         4.6950    2.2590   -2.5480 hc        1 MOL      0.037298
    155 H73         4.6750    1.7770   -5.1290 hc        1 MOL      0.013158
    156 H74         6.0130    2.9470   -5.2670 hc        1 MOL      0.013158
    157 H75         4.6810    4.6250   -4.2140 hx        1 MOL      0.060937
    158 H76         3.2860    3.5700   -4.1380 hx        1 MOL      0.060937
    159 H77         3.4200    3.5640   -6.7370 hn        1 MOL      0.312822
    160 H78         3.0880    5.0050   -6.0720 hn        1 MOL      0.312822
    161 H79         4.5430    4.6640   -6.6500 hn        1 MOL      0.312822
    162 N14         5.1800    0.9850   -0.0760 n         1 MOL      0.169390
    163 C49         4.2430    1.5570    0.9710 c3        1 MOL     -0.029235
    164 C50         4.7710    1.3830    2.4490 c         1 MOL      0.410411
    165 O22         4.6750    2.2950    3.2840 o         1 MOL     -0.563251
    166 C51         2.8420    0.8500    0.8190 c3        1 MOL      0.243263
    167 C52         1.9380    1.5290   -0.3260 c3        1 MOL     -0.145864
    168 C53         0.6700    0.6640   -0.5400 c         1 MOL      0.576083
    169 O23        -0.4860    1.1600   -0.3700 o         1 MOL     -0.644958
    170 O24         0.7410   -0.5780   -0.8130 o         1 MOL     -0.644958
    171 H80         4.8190    0.1730   -0.5500 hn        1 MOL      0.023641
    172 H81         4.0930    2.6220    0.8010 h1        1 MOL      0.019813
    173 H82         2.5040    1.0300    1.8410 hc        1 MOL     -0.032155
    174 H83         2.9470   -0.2330    0.7250 hc        1 MOL     -0.032155
    175 H84         2.4410    1.5450   -1.2950 hc        1 MOL      0.015638
    176 H85         1.6170    2.5170    0.0130 hc        1 MOL      0.015638
    177 N15         5.4980    0.3310    2.6480 n         1 MOL     -0.032703
    178 C54         6.2410    0.0650    3.8850 c3        1 MOL     -0.247942
    179 H86         5.5400   -0.0360    4.7140 h1        1 MOL      0.098812
    180 H87         6.8100   -0.8580    3.7760 h1        1 MOL      0.098812
    181 H88         6.9220    0.8920    4.0840 h1        1 MOL      0.098812
    182 H89         5.2860   -0.4420    2.0320 hn        1 MOL      0.074621
    183 Ca1        -1.9710   -0.5210   -1.4380 Ca        1 MOL      1.769948
    184 O25        -0.5730    0.4720   -3.4710 oh        1 MOL     -0.875672
    185 H90        -1.1180    1.1280   -3.8960 ho        1 MOL      0.400844
    186 H91         0.3020    0.6140   -3.8310 ho        1 MOL      0.400844
    187 O26        -1.5100   -2.7690   -2.7650 oh        1 MOL     -0.875672
    188 H92        -2.2640   -3.3300   -2.6040 ho        1 MOL      0.400844
    189 H93        -1.3350   -2.8620   -3.7050 ho        1 MOL      0.400844
@<TRIPOS>BOND
     1    1    2 1   
     2    1    4 1   
     3    1    5 1   
     4    1    6 1   
     5    2    3 2   
     6    2    7 1   
     7    7    8 1   
     8    7   15 1   
     9    8    9 1   
    10    8   11 1   
    11    8   16 1   
    12    9   10 2   
    13    9   19 1   
    14   11   12 1   
    15   11   17 1   
    16   11   18 1   
    17   12   13 1   
    18   12   14 1   
    19   19   20 1   
    20   19   28 1   
    21   20   21 1   
    22   20   23 1   
    23   20   29 1   
    24   21   22 2   
    25   21   41 1   
    26   23   24 1   
    27   23   30 1   
    28   23   31 1   
    29   24   25 1   
    30   24   32 1   
    31   24   33 1   
    32   25   26 1   
    33   25   34 1   
    34   25   35 1   
    35   26   27 1   
    36   26   36 1   
    37   26   37 1   
    38   27   38 1   
    39   27   39 1   
    40   27   40 1   
    41   41   42 1   
    42   41   49 1   
    43   42   43 1   
    44   42   45 1   
    45   42   50 1   
    46   43   44 2   
    47   43   53 1   
    48   45   46 1   
    49   45   51 1   
    50   45   52 1   
    51   46   47 1   
    52   46   48 1   
    53   53   54 1   
    54   53   57 1   
    55   54   55 1   
    56   54   58 1   
    57   54   59 1   
    58   55   56 2   
    59   55   60 1   
    60   60   61 1   
    61   60   68 1   
    62   61   62 1   
    63   61   64 1   
    64   61   69 1   
    65   62   63 2   
    66   62   72 1   
    67   64   65 1   
    68   64   70 1   
    69   64   71 1   
    70   65   66 1   
    71   65   67 1   
    72   72   73 1   
    73   72   76 1   
    74   73   74 1   
    75   73   77 1   
    76   73   78 1   
    77   74   75 2   
    78   74   79 1   
    79   79   80 1   
    80   79   86 1   
    81   80   81 1   
    82   80   83 1   
    83   80   87 1   
    84   81   82 2   
    85   81   93 1   
    86   83   84 1   
    87   83   85 1   
    88   83   88 1   
    89   84   90 1   
    90   84   91 1   
    91   84   92 1   
    92   85   89 1   
    93   93   94 1   
    94   93  101 1   
    95   94   95 1   
    96   94   97 1   
    97   94  102 1   
    98   95   96 2   
    99   95  112 1   
   100   97   98 1   
   101   97   99 1   
   102   97  103 1   
   103   98  100 1   
   104   98  104 1   
   105   98  105 1   
   106   99  106 1   
   107   99  107 1   
   108   99  108 1   
   109  100  109 1   
   110  100  110 1   
   111  100  111 1   
   112  112  113 1   
   113  112  119 1   
   114  113  114 1   
   115  113  116 1   
   116  113  120 1   
   117  114  115 2   
   118  114  126 1   
   119  116  117 1   
   120  116  118 1   
   121  116  121 1   
   122  117  123 1   
   123  117  124 1   
   124  117  125 1   
   125  118  122 1   
   126  126  127 1   
   127  126  133 1   
   128  127  128 1   
   129  127  130 1   
   130  127  134 1   
   131  128  129 2   
   132  128  140 1   
   133  130  131 1   
   134  130  132 1   
   135  130  135 1   
   136  131  137 1   
   137  131  138 1   
   138  131  139 1   
   139  132  136 1   
   140  140  141 1   
   141  140  149 1   
   142  141  142 1   
   143  141  144 1   
   144  141  150 1   
   145  142  143 2   
   146  142  162 1   
   147  144  145 1   
   148  144  151 1   
   149  144  152 1   
   150  145  146 1   
   151  145  153 1   
   152  145  154 1   
   153  146  147 1   
   154  146  155 1   
   155  146  156 1   
   156  147  148 1   
   157  147  157 1   
   158  147  158 1   
   159  148  159 1   
   160  148  160 1   
   161  148  161 1   
   162  162  163 1   
   163  162  171 1   
   164  163  164 1   
   165  163  166 1   
   166  163  172 1   
   167  164  165 2   
   168  164  177 1   
   169  166  167 1   
   170  166  173 1   
   171  166  174 1   
   172  167  168 1   
   173  167  175 1   
   174  167  176 1   
   175  168  169 1   
   176  168  170 1   
   177  177  178 1   
   178  177  182 1   
   179  178  179 1   
   180  178  180 1   
   181  178  181 1   
   182  184  185 1   
   183  184  186 1   
   184  187  188 1   
   185  187  189 1   
@<TRIPOS>SUBSTRUCTURE
     1 MOL         1 TEMP              0 ****  ****    0 ROOT
