@<TRIPOS>MOLECULE
MOL
  189   185     1     0     0
SMALL
resp


@<TRIPOS>ATOM
      1 C1          0.3880    2.2170    5.6560 c3        1 MOL     -0.219279
      2 C2          0.0140    1.8690    4.2190 c         1 MOL      0.617054
      3 O1          0.8060    2.0840    3.2590 o         1 MOL     -0.605004
      4 H1         -0.5180    2.4110    6.2300 hc        1 MOL      0.055555
      5 H2          0.9290    1.3840    6.1030 hc        1 MOL      0.055555
      6 H3          1.0180    3.1060    5.6620 hc        1 MOL      0.055555
      7 N1         -1.1770    1.3300    4.0190 n         1 MOL     -0.452647
      8 C3         -1.8800    1.2520    2.7300 c3        1 MOL      0.027623
      9 C4         -2.2640    2.7060    2.3330 c         1 MOL      0.569924
     10 O2         -2.8970    3.3890    3.1280 o         1 MOL     -0.566181
     11 C5         -3.1920    0.4660    2.8920 c3        1 MOL     -0.273888
     12 C6         -3.9490    0.3720    1.5590 c         1 MOL      0.873986
     13 O3         -3.3600    0.5360    0.4830 o         1 MOL     -0.731154
     14 O4         -5.1910    0.2240    1.6070 o         1 MOL     -0.731154
     15 H4         -1.7430    1.2740    4.8550 hn        1 MOL      0.300204
     16 H5         -1.2050    0.7340    2.0470 h1        1 MOL      0.018234
     17 H6         -3.7990    0.9220    3.6750 hc        1 MOL      0.056383
     18 H7         -2.9240   -0.5450    3.1800 hc        1 MOL      0.056383
     19 N2         -1.8590    3.1110    1.1100 n         1 MOL     -0.323994
     20 C7         -1.9140    4.4880    0.6440 c3        1 MOL      0.188681
     21 C8         -2.9900    4.8340   -0.3410 c         1 MOL      0.387649
     22 O5         -3.3730    6.0260   -0.4930 o         1 MOL     -0.569053
     23 C9         -0.5140    4.8370    0.1500 c3        1 MOL      0.244459
     24 C10        -0.2540    6.3520   -0.1280 c3        1 MOL     -0.499235
     25 C11        -0.6580    7.2700    1.0500 c3        1 MOL     -0.071042
     26 C12        -0.2600    8.7660    0.8940 c3        1 MOL      0.059130
     27 N3         -0.6370    9.4610    2.1010 n4        1 MOL     -0.398894
     28 H8         -1.3430    2.4540    0.5380 hn        1 MOL      0.216935
     29 H9         -2.0330    5.1300    1.5070 h1        1 MOL     -0.035447
     30 H10        -0.2750    4.2930   -0.7650 hc        1 MOL     -0.015466
     31 H11         0.1840    4.4260    0.8810 hc        1 MOL     -0.015466
     32 H12        -0.8600    6.6890   -0.9670 hc        1 MOL      0.136256
     33 H13         0.8080    6.4670   -0.3600 hc        1 MOL      0.136256
     34 H14        -0.1960    6.8760    1.9550 hc        1 MOL      0.084150
     35 H15        -1.7420    7.2590    1.1290 hc        1 MOL      0.084150
     36 H16        -0.7850    9.0760   -0.0040 hx        1 MOL      0.081160
     37 H17         0.7830    8.9350    0.6430 hx        1 MOL      0.081160
     38 H18        -1.5640    9.1860    2.3990 hn        1 MOL      0.340652
     39 H19        -0.0120    9.2090    2.8480 hn        1 MOL      0.340652
     40 H20        -0.5250   10.4420    1.8970 hn        1 MOL      0.340652
     41 N4         -3.5030    3.7740   -1.0290 n         1 MOL     -0.116230
     42 C13        -4.4090    3.7380   -2.1410 c3        1 MOL     -0.073547
     43 C14        -5.6970    2.8870   -2.0050 c         1 MOL      0.437546
     44 O6         -6.6020    2.7820   -2.8630 o         1 MOL     -0.526819
     45 C15        -3.7710    3.3870   -3.4970 c3        1 MOL      0.080074
     46 C16        -2.6700    2.2870   -3.5030 c         1 MOL      0.652992
     47 O7         -2.3160    1.8170   -4.5720 o         1 MOL     -0.675395
     48 O8         -2.3410    1.7280   -2.4090 o         1 MOL     -0.675395
     49 H21        -3.0550    2.8840   -0.9120 hn        1 MOL      0.043288
     50 H22        -4.8840    4.7160   -2.2760 h1        1 MOL      0.068954
     51 H23        -3.1690    4.2100   -3.8870 hc        1 MOL     -0.017616
     52 H24        -4.5270    3.2190   -4.2650 hc        1 MOL     -0.017616
     53 N5         -5.9310    2.3460   -0.7980 n         1 MOL     -0.146522
     54 C17        -7.2450    1.8780   -0.3670 c3        1 MOL     -0.359393
     55 C18        -7.5570    0.4970   -0.7280 c         1 MOL      0.660094
     56 O9         -8.6970    0.1570   -0.4630 o         1 MOL     -0.589621
     57 H25        -5.2720    2.6990   -0.1100 hn        1 MOL      0.193090
     58 H26        -8.0800    2.4520   -0.7540 h1        1 MOL      0.153641
     59 H27        -7.2380    2.0180    0.7190 h1        1 MOL      0.153641
     60 N6         -6.6440   -0.3450   -1.2880 n         1 MOL     -0.286274
     61 C19        -6.8970   -1.7170   -1.6800 c3        1 MOL     -0.069143
     62 C20        -6.8870   -2.6690   -0.5260 c         1 MOL      0.422629
     63 O10        -7.2610   -3.8020   -0.7000 o         1 MOL     -0.525107
     64 C21        -5.8920   -2.2080   -2.7640 c3        1 MOL     -0.113919
     65 C22        -4.4520   -1.7480   -2.2700 c         1 MOL      0.493594
     66 O11        -3.9040   -0.8330   -2.8360 o         1 MOL     -0.600997
     67 O12        -3.9100   -2.2810   -1.3340 o         1 MOL     -0.600997
     68 H28        -5.6840   -0.0360   -1.3420 hn        1 MOL      0.185546
     69 H29        -7.8590   -1.8290   -2.1840 h1        1 MOL      0.108350
     70 H30        -6.1380   -1.8770   -3.7710 hc        1 MOL      0.067909
     71 H31        -5.9400   -3.2980   -2.7870 hc        1 MOL      0.067909
     72 N7         -6.2360   -2.2880    0.6180 n         1 MOL     -0.182983
     73 C23        -6.1180   -3.1720    1.7810 c3        1 MOL     -0.098190
     74 C24        -4.9260   -4.1390    1.7460 c         1 MOL      0.522972
     75 O13        -4.9730   -5.1520    2.4590 o         1 MOL     -0.597355
     76 H32        -5.7790   -1.3880    0.5840 hn        1 MOL      0.208124
     77 H33        -7.0020   -3.8020    1.8320 h1        1 MOL      0.083561
     78 H34        -6.0570   -2.5680    2.6860 h1        1 MOL      0.083561
     79 N8         -3.8790   -3.9790    0.9550 n         1 MOL     -0.113996
     80 C25        -2.6200   -4.6850    0.9770 c3        1 MOL     -0.198458
     81 C26        -1.4520   -3.6770    1.0300 c         1 MOL      0.600440
     82 O14        -1.5460   -2.4890    0.6360 o         1 MOL     -0.637793
     83 C27        -2.4900   -5.5850   -0.2890 c3        1 MOL      0.518658
     84 C28        -3.1740   -6.8950    0.0010 c3        1 MOL     -0.530449
     85 O15        -3.1850   -5.0980   -1.4200 oh        1 MOL     -0.654717
     86 H35        -3.9740   -3.1750    0.3500 hn        1 MOL      0.039942
     87 H36        -2.6170   -5.2820    1.8900 h1        1 MOL      0.112453
     88 H37        -1.4480   -5.6440   -0.6110 h1        1 MOL     -0.040293
     89 H38        -3.4200   -4.1810   -1.2300 ho        1 MOL      0.439190
     90 H39        -4.1420   -6.7980    0.4980 hc        1 MOL      0.135272
     91 H40        -3.1520   -7.4650   -0.9220 hc        1 MOL      0.135272
     92 H41        -2.5340   -7.4040    0.7240 hc        1 MOL      0.135272
     93 N9         -0.2930   -4.1740    1.3940 n         1 MOL     -0.553098
     94 C29         0.8810   -3.3720    1.6060 c3        1 MOL      0.034988
     95 C30         1.9650   -3.9270    0.7530 c         1 MOL      0.574549
     96 O16         2.2530   -5.0710    0.7490 o         1 MOL     -0.552171
     97 C31         1.1420   -3.2830    3.1300 c3        1 MOL      0.005421
     98 C32         0.2240   -2.1650    3.7450 c3        1 MOL      0.188037
     99 C33         2.6360   -2.9540    3.5380 c3        1 MOL     -0.666236
    100 C34         0.1910   -2.1170    5.2540 c3        1 MOL     -0.402035
    101 H42        -0.2090   -5.1190    1.7250 hn        1 MOL      0.299201
    102 H43         0.6040   -2.3490    1.3800 h1        1 MOL      0.094765
    103 H44         0.9210   -4.2160    3.6460 hc        1 MOL      0.035098
    104 H45        -0.7490   -2.3710    3.3110 hc        1 MOL      0.032342
    105 H46         0.5860   -1.1750    3.4630 hc        1 MOL      0.032342
    106 H47         2.6700   -1.8610    3.4470 hc        1 MOL      0.177189
    107 H48         2.7670   -3.1040    4.6100 hc        1 MOL      0.177189
    108 H49         3.3430   -3.5950    3.0300 hc        1 MOL      0.177189
    109 H50         0.0680   -3.1160    5.6570 hc        1 MOL      0.097516
    110 H51         1.2040   -1.8020    5.5160 hc        1 MOL      0.097516
    111 H52        -0.6140   -1.4520    5.5720 hc        1 MOL      0.097516
    112 N10         2.5180   -3.0440   -0.0800 n         1 MOL     -0.228430
    113 C35         3.4850   -3.2320   -1.1530 c3        1 MOL     -0.096905
    114 C36         4.9000   -2.8860   -0.7140 c         1 MOL      0.497705
    115 O17         5.0850   -2.1940    0.3080 o         1 MOL     -0.419006
    116 C37         3.1470   -2.4130   -2.4280 c3        1 MOL      0.157283
    117 C38         1.7890   -2.7080   -3.0610 c3        1 MOL     -0.282279
    118 O18         3.0200   -1.0570   -1.9990 oh        1 MOL     -0.600820
    119 H53         2.0980   -2.1230   -0.1180 hn        1 MOL      0.347331
    120 H54         3.5740   -4.2840   -1.4310 h1        1 MOL      0.059566
    121 H55         3.8830   -2.5240   -3.2320 h1        1 MOL      0.062334
    122 H56         2.1860   -0.9180   -1.5570 ho        1 MOL      0.357069
    123 H57         1.8540   -3.7130   -3.4940 hc        1 MOL      0.080855
    124 H58         1.0090   -2.7260   -2.2900 hc        1 MOL      0.080855
    125 H59         1.5520   -2.1430   -3.9500 hc        1 MOL      0.080855
    126 N11         5.9680   -3.1200   -1.5530 n         1 MOL     -0.360589
    127 C39         7.3820   -2.7640   -1.1560 c3        1 MOL     -0.238940
    128 C40         7.6260   -1.3210   -0.7540 c         1 MOL      0.498176
    129 O19         8.2280   -1.0610    0.2900 o         1 MOL     -0.492919
    130 C41         8.4700   -3.1320   -2.2170 c3        1 MOL      0.284807
    131 C42         8.4950   -4.6030   -2.6380 c3        1 MOL     -0.329307
    132 O20         8.2250   -2.2840   -3.3470 oh        1 MOL     -0.660525
    133 H60         5.8130   -3.5070   -2.4760 hn        1 MOL      0.266549
    134 H61         7.6090   -3.3730   -0.2780 h1        1 MOL      0.159550
    135 H62         9.4470   -2.8100   -1.8500 h1        1 MOL      0.060265
    136 H63         8.5990   -2.7150   -4.1040 ho        1 MOL      0.420602
    137 H64         8.9000   -5.1720   -1.8010 hc        1 MOL      0.098680
    138 H65         7.5830   -5.0750   -2.9980 hc        1 MOL      0.098680
    139 H66         9.1970   -4.6980   -3.4670 hc        1 MOL      0.098680
    140 N12         6.9220   -0.3660   -1.4530 n         1 MOL     -0.246183
    141 C43         7.0510    1.0530   -1.0470 c3        1 MOL     -0.072200
    142 C44         6.2260    1.3500    0.2210 c         1 MOL      0.290996
    143 O21         6.7040    2.0610    1.1070 o         1 MOL     -0.525276
    144 C45         6.5080    1.9820   -2.1670 c3        1 MOL     -0.144423
    145 C46         6.6250    3.5010   -1.7530 c3        1 MOL      0.211648
    146 C47         6.3420    4.5400   -2.7820 c3        1 MOL     -0.138921
    147 C48         6.5150    6.0060   -2.2300 c3        1 MOL     -0.021588
    148 N13         5.4880    6.4410   -1.2690 n4        1 MOL     -0.427159
    149 H67         6.5070   -0.5810   -2.3490 hn        1 MOL      0.274314
    150 H68         8.0880    1.3760   -0.9520 h1        1 MOL      0.130441
    151 H69         5.4480    1.7970   -2.3770 hc        1 MOL      0.040899
    152 H70         7.0350    1.6940   -3.0720 hc        1 MOL      0.040899
    153 H71         7.6310    3.6830   -1.3760 hc        1 MOL     -0.027167
    154 H72         5.9400    3.5700   -0.9070 hc        1 MOL     -0.027167
    155 H73         5.3150    4.4660   -3.1300 hc        1 MOL      0.075950
    156 H74         7.0420    4.4600   -3.6130 hc        1 MOL      0.075950
    157 H75         6.6870    6.7300   -3.0260 hx        1 MOL      0.110692
    158 H76         7.4610    6.0760   -1.7020 hx        1 MOL      0.110692
    159 H77         5.4020    5.7320   -0.5460 hn        1 MOL      0.345866
    160 H78         5.7960    7.2400   -0.7280 hn        1 MOL      0.345866
    161 H79         4.6150    6.7000   -1.7030 hn        1 MOL      0.345866
    162 N14         5.0540    0.7520    0.3530 n         1 MOL     -0.024449
    163 C49         4.2240    0.9520    1.5860 c3        1 MOL     -0.218662
    164 C50         4.8950    0.3320    2.8350 c         1 MOL      0.527385
    165 O22         4.8570    0.9500    3.8930 o         1 MOL     -0.557100
    166 C51         2.8660    0.2700    1.3780 c3        1 MOL      0.273653
    167 C52         2.1350    1.0690    0.2680 c3        1 MOL     -0.100661
    168 C53         0.8420    0.3980   -0.1760 c         1 MOL      0.766015
    169 O23         0.8190   -0.7640   -0.6070 o         1 MOL     -0.715589
    170 O24        -0.2000    1.0420   -0.1590 o         1 MOL     -0.715589
    171 H80         4.7650    0.1290   -0.3810 hn        1 MOL      0.188527
    172 H81         3.9720    1.9760    1.8590 h1        1 MOL      0.113920
    173 H82         2.2850    0.0900    2.2800 hc        1 MOL     -0.084325
    174 H83         3.0460   -0.7110    0.9410 hc        1 MOL     -0.084325
    175 H84         2.7400    1.1440   -0.6390 hc        1 MOL     -0.029071
    176 H85         1.9210    2.0970    0.5600 hc        1 MOL     -0.029071
    177 N15         5.5890   -0.8020    2.6280 n         1 MOL     -0.087990
    178 C54         6.2190   -1.5150    3.6950 c3        1 MOL     -0.488643
    179 H86         7.1070   -2.0220    3.3180 h1        1 MOL      0.152129
    180 H87         6.5060   -0.8150    4.4810 h1        1 MOL      0.152129
    181 H88         5.5250   -2.2520    4.1000 h1        1 MOL      0.152129
    182 H89         5.7370   -1.2110    1.7220 hn        1 MOL      0.202787
    183 Ca1        -1.8270   -0.6580   -1.3610 Ca        1 MOL      1.777194
    184 O25        -0.7740   -0.4070   -3.8310 oh        1 MOL     -0.893816
    185 H90        -0.6360   -0.9540   -4.6160 ho        1 MOL      0.411041
    186 H91        -1.1300    0.4070   -4.1660 ho        1 MOL      0.411041
    187 O26        -1.3940   -3.0050   -2.6040 oh        1 MOL     -0.893816
    188 H92        -0.9430   -3.2420   -3.4150 ho        1 MOL      0.411041
    189 H93        -1.9780   -3.7450   -2.4180 ho        1 MOL      0.411041
@<TRIPOS>BOND
     1    1    2 1   
     2    1    4 1   
     3    1    5 1   
     4    1    6 1   
     5    2    3 2   
     6    2    7 1   
     7    7    8 1   
     8    7   15 1   
     9    8    9 1   
    10    8   11 1   
    11    8   16 1   
    12    9   10 2   
    13    9   19 1   
    14   11   12 1   
    15   11   17 1   
    16   11   18 1   
    17   12   13 1   
    18   12   14 1   
    19   19   20 1   
    20   19   28 1   
    21   20   21 1   
    22   20   23 1   
    23   20   29 1   
    24   21   22 2   
    25   21   41 1   
    26   23   24 1   
    27   23   30 1   
    28   23   31 1   
    29   24   25 1   
    30   24   32 1   
    31   24   33 1   
    32   25   26 1   
    33   25   34 1   
    34   25   35 1   
    35   26   27 1   
    36   26   36 1   
    37   26   37 1   
    38   27   38 1   
    39   27   39 1   
    40   27   40 1   
    41   41   42 1   
    42   41   49 1   
    43   42   43 1   
    44   42   45 1   
    45   42   50 1   
    46   43   44 2   
    47   43   53 1   
    48   45   46 1   
    49   45   51 1   
    50   45   52 1   
    51   46   47 1   
    52   46   48 1   
    53   53   54 1   
    54   53   57 1   
    55   54   55 1   
    56   54   58 1   
    57   54   59 1   
    58   55   56 2   
    59   55   60 1   
    60   60   61 1   
    61   60   68 1   
    62   61   62 1   
    63   61   64 1   
    64   61   69 1   
    65   62   63 2   
    66   62   72 1   
    67   64   65 1   
    68   64   70 1   
    69   64   71 1   
    70   65   66 1   
    71   65   67 1   
    72   72   73 1   
    73   72   76 1   
    74   73   74 1   
    75   73   77 1   
    76   73   78 1   
    77   74   75 2   
    78   74   79 1   
    79   79   80 1   
    80   79   86 1   
    81   80   81 1   
    82   80   83 1   
    83   80   87 1   
    84   81   82 2   
    85   81   93 1   
    86   83   84 1   
    87   83   85 1   
    88   83   88 1   
    89   84   90 1   
    90   84   91 1   
    91   84   92 1   
    92   85   89 1   
    93   93   94 1   
    94   93  101 1   
    95   94   95 1   
    96   94   97 1   
    97   94  102 1   
    98   95   96 2   
    99   95  112 1   
   100   97   98 1   
   101   97   99 1   
   102   97  103 1   
   103   98  100 1   
   104   98  104 1   
   105   98  105 1   
   106   99  106 1   
   107   99  107 1   
   108   99  108 1   
   109  100  109 1   
   110  100  110 1   
   111  100  111 1   
   112  112  113 1   
   113  112  119 1   
   114  113  114 1   
   115  113  116 1   
   116  113  120 1   
   117  114  115 2   
   118  114  126 1   
   119  116  117 1   
   120  116  118 1   
   121  116  121 1   
   122  117  123 1   
   123  117  124 1   
   124  117  125 1   
   125  118  122 1   
   126  126  127 1   
   127  126  133 1   
   128  127  128 1   
   129  127  130 1   
   130  127  134 1   
   131  128  129 2   
   132  128  140 1   
   133  130  131 1   
   134  130  132 1   
   135  130  135 1   
   136  131  137 1   
   137  131  138 1   
   138  131  139 1   
   139  132  136 1   
   140  140  141 1   
   141  140  149 1   
   142  141  142 1   
   143  141  144 1   
   144  141  150 1   
   145  142  143 2   
   146  142  162 1   
   147  144  145 1   
   148  144  151 1   
   149  144  152 1   
   150  145  146 1   
   151  145  153 1   
   152  145  154 1   
   153  146  147 1   
   154  146  155 1   
   155  146  156 1   
   156  147  148 1   
   157  147  157 1   
   158  147  158 1   
   159  148  159 1   
   160  148  160 1   
   161  148  161 1   
   162  162  163 1   
   163  162  171 1   
   164  163  164 1   
   165  163  166 1   
   166  163  172 1   
   167  164  165 2   
   168  164  177 1   
   169  166  167 1   
   170  166  173 1   
   171  166  174 1   
   172  167  168 1   
   173  167  175 1   
   174  167  176 1   
   175  168  169 1   
   176  168  170 1   
   177  177  178 1   
   178  177  182 1   
   179  178  179 1   
   180  178  180 1   
   181  178  181 1   
   182  184  185 1   
   183  184  186 1   
   184  187  188 1   
   185  187  189 1   
@<TRIPOS>SUBSTRUCTURE
     1 MOL         1 TEMP              0 ****  ****    0 ROOT
