@<TRIPOS>MOLECULE
MOL
  178   175     1     0     0
SMALL
resp


@<TRIPOS>ATOM
      1 C1         -0.3030    1.7120    6.0480 c3        1 MOL     -0.402856
      2 C2         -0.5360    2.1040    4.6210 c         1 MOL      0.822935
      3 O1          0.2740    2.7770    4.0560 o         1 MOL     -0.588550
      4 H1          0.4090    2.4020    6.5030 hc        1 MOL      0.092703
      5 H2         -1.2450    1.7490    6.5960 hc        1 MOL      0.092703
      6 H3          0.0990    0.6990    6.0870 hc        1 MOL      0.092703
      7 N1         -1.6750    1.7090    4.0340 n         1 MOL     -0.642735
      8 C3         -2.0690    1.7070    2.6050 c3        1 MOL     -0.046628
      9 C4         -2.5280    3.1530    2.2610 c         1 MOL      0.694538
     10 O2         -3.2630    3.7440    3.0620 o         1 MOL     -0.600322
     11 C5         -3.1830    0.6570    2.3700 c3        1 MOL      0.010060
     12 C6         -3.5550    0.5180    0.8950 c         1 MOL      0.661935
     13 O3         -2.9570    1.1330   -0.0140 o         1 MOL     -0.661293
     14 O4         -4.5390   -0.1320    0.5380 o         1 MOL     -0.661293
     15 H4         -2.2400    1.1790    4.6910 hn        1 MOL      0.285293
     16 H5         -1.1640    1.4400    2.0810 h1        1 MOL      0.091781
     17 H6         -4.0480    1.1060    2.8800 hc        1 MOL      0.031133
     18 H7         -3.0020   -0.2930    2.8610 hc        1 MOL      0.031133
     19 N2         -2.0760    3.7210    1.1190 n         1 MOL     -0.380924
     20 C7         -2.3740    5.0850    0.6110 c3        1 MOL      0.181046
     21 C8         -3.2820    5.0350   -0.6170 c         1 MOL      0.232389
     22 O5         -3.4990    6.0730   -1.2750 o         1 MOL     -0.500848
     23 C9         -1.0590    5.8600    0.3210 c3        1 MOL     -0.183161
     24 H8         -1.4890    3.1720    0.5060 hn        1 MOL      0.162421
     25 H9         -2.7850    5.6290    1.4520 h1        1 MOL      0.023067
     26 H10        -0.4800    6.1310    1.2020 hc        1 MOL      0.059638
     27 H11        -0.4410    5.1890   -0.2720 hc        1 MOL      0.059638
     28 H12        -1.1920    6.7420   -0.3080 hc        1 MOL      0.059638
     29 N3         -3.7840    3.8640   -1.0440 n         1 MOL      0.038879
     30 C10        -5.0110    3.7440   -1.8850 c3        1 MOL     -0.157769
     31 C11        -6.1920    3.1570   -1.0950 c         1 MOL      0.294359
     32 O6         -7.3400    3.0320   -1.6100 o         1 MOL     -0.494617
     33 C12        -4.6830    2.8400   -3.1030 c3        1 MOL     -0.004795
     34 C13        -3.2460    3.0280   -3.6550 c         1 MOL      0.644286
     35 O7         -2.3360    2.2930   -3.2340 o         1 MOL     -0.685474
     36 O8         -3.1080    3.9590   -4.5180 o         1 MOL     -0.685474
     37 H13        -3.2710    3.0120   -0.8700 hn        1 MOL      0.238004
     38 H14        -5.3120    4.7160   -2.2720 h1        1 MOL      0.142405
     39 H15        -5.3790    2.9190   -3.9410 hc        1 MOL     -0.024584
     40 H16        -4.7100    1.8180   -2.7100 hc        1 MOL     -0.024584
     41 N4         -6.0760    2.7940    0.1800 n         1 MOL      0.044197
     42 C14        -7.0860    2.3540    1.1110 c3        1 MOL     -0.216637
     43 C15        -7.9560    1.1140    0.7790 c         1 MOL      0.389844
     44 O9         -9.2030    1.1430    0.7810 o         1 MOL     -0.517425
     45 H17        -5.1500    2.7990    0.5880 hn        1 MOL     -0.061382
     46 H18        -7.7600    3.2090    1.1980 h1        1 MOL      0.105967
     47 H19        -6.4810    2.3050    2.0120 h1        1 MOL      0.105967
     48 N5         -7.2210    0.1480    0.2180 n         1 MOL     -0.245385
     49 C16        -7.8570   -1.1640   -0.1520 c3        1 MOL      0.154148
     50 C17        -7.4180   -2.2610    0.8610 c         1 MOL      0.221247
     51 O10        -7.9720   -3.3990    0.9420 o         1 MOL     -0.478475
     52 C18        -7.5020   -1.4680   -1.6510 c3        1 MOL     -0.177516
     53 C19        -7.5830   -2.9190   -1.9610 c         1 MOL      0.649453
     54 N6         -8.7440   -3.3740   -2.2840 n         1 MOL     -0.830410
     55 O11        -6.6620   -3.6680   -1.6410 o         1 MOL     -0.553692
     56 H20        -6.2350    0.3050    0.3720 hn        1 MOL      0.270436
     57 H21        -8.9410   -1.0620   -0.0370 h1        1 MOL      0.066344
     58 H22        -6.4400   -1.2280   -1.7660 hc        1 MOL      0.043525
     59 H23        -8.0830   -0.9300   -2.3950 hc        1 MOL      0.043525
     60 H24        -9.4800   -2.6860   -2.4220 hn        1 MOL      0.388016
     61 H25        -8.9130   -4.3680   -2.1770 hn        1 MOL      0.388016
     62 N7         -6.3090   -2.0060    1.5720 n         1 MOL     -0.002125
     63 C20        -5.7930   -2.8570    2.6850 c3        1 MOL     -0.283798
     64 C21        -4.7010   -3.8400    2.0630 c         1 MOL      0.560551
     65 O12        -4.4250   -4.9400    2.6460 o         1 MOL     -0.569470
     66 H26        -5.8960   -1.0880    1.4740 hn        1 MOL      0.044626
     67 H27        -6.5940   -3.4230    3.1420 h1        1 MOL      0.129025
     68 H28        -5.3520   -2.1470    3.3910 h1        1 MOL      0.129025
     69 N8         -3.9450   -3.3860    1.0650 n         1 MOL     -0.320170
     70 C22        -2.6920   -3.9290    0.5730 c3        1 MOL      0.028388
     71 C23        -1.5830   -2.9280    0.4630 c         1 MOL      0.420454
     72 O13        -1.7660   -1.8080    0.0030 o         1 MOL     -0.634753
     73 C24        -2.8950   -4.5820   -0.8740 c3        1 MOL      0.343394
     74 C25        -1.8470   -5.5660   -1.3900 c3        1 MOL     -0.239697
     75 O14        -4.0610   -5.3770   -0.7660 oh        1 MOL     -0.631776
     76 H29        -4.3300   -2.5850    0.5660 hn        1 MOL      0.235085
     77 H30        -2.5040   -4.7360    1.2940 h1        1 MOL      0.069106
     78 H31        -3.0360   -3.7850   -1.6120 h1        1 MOL     -0.022760
     79 H32        -4.8200   -4.7960   -0.8360 ho        1 MOL      0.404927
     80 H33        -0.8770   -5.0680   -1.4490 hc        1 MOL      0.062197
     81 H34        -1.6320   -6.3890   -0.7090 hc        1 MOL      0.062197
     82 H35        -1.9780   -5.9490   -2.4040 hc        1 MOL      0.062197
     83 N9         -0.3920   -3.4170    0.7530 n         1 MOL     -0.231860
     84 C26         0.8530   -2.6480    0.9630 c3        1 MOL      0.035017
     85 C27         1.7420   -2.7820   -0.2710 c         1 MOL      0.357382
     86 O15         2.0520   -3.9140   -0.6100 o         1 MOL     -0.554355
     87 C28         1.5450   -3.0610    2.3360 c3        1 MOL      0.130747
     88 C29         0.6450   -2.7730    3.6030 c3        1 MOL      0.042515
     89 C30         2.8840   -2.3430    2.4210 c3        1 MOL     -0.101301
     90 C31         1.2550   -3.3470    4.8790 c3        1 MOL     -0.246338
     91 H36        -0.3780   -4.4090    0.9130 hn        1 MOL      0.202200
     92 H37         0.6100   -1.5860    1.0810 h1        1 MOL      0.064562
     93 H38         1.6930   -4.1400    2.3640 hc        1 MOL     -0.016606
     94 H39        -0.3320   -3.2080    3.3640 hc        1 MOL     -0.006632
     95 H40         0.4640   -1.7060    3.7150 hc        1 MOL     -0.006632
     96 H41         3.4090   -2.7580    3.2840 hc        1 MOL      0.014087
     97 H42         3.3940   -2.6490    1.5060 hc        1 MOL      0.014087
     98 H43         2.6610   -1.2810    2.5250 hc        1 MOL      0.014087
     99 H44         0.6760   -3.0640    5.7590 hc        1 MOL      0.056752
    100 H45         1.4550   -4.4130    4.8890 hc        1 MOL      0.056752
    101 H46         2.2870   -2.9990    4.9780 hc        1 MOL      0.056752
    102 N10         2.2090   -1.6540   -0.8090 n         1 MOL     -0.138895
    103 C32         3.3980   -1.6710   -1.7000 c3        1 MOL      0.202421
    104 C33         4.7380   -1.3880   -0.9760 c         1 MOL      0.519372
    105 O16         4.7190   -1.0440    0.1670 o         1 MOL     -0.391876
    106 C34         3.1690   -0.6610   -2.8580 c3        1 MOL     -0.510087
    107 C35         1.7130   -0.6860   -3.4350 c         1 MOL      0.902047
    108 O17         0.9690    0.3130   -3.1940 o         1 MOL     -0.729816
    109 O18         1.4120   -1.6270   -4.1910 o         1 MOL     -0.729816
    110 H47         1.7120   -0.8430   -0.4480 hn        1 MOL      0.164406
    111 H48         3.3990   -2.6760   -2.1370 h1        1 MOL      0.025861
    112 H49         3.9620   -0.8910   -3.5750 hc        1 MOL      0.107810
    113 H50         3.4460    0.3270   -2.4920 hc        1 MOL      0.107810
    114 N11         5.8970   -1.5780   -1.6750 n         1 MOL     -0.790710
    115 C36         7.2350   -1.2930   -1.0410 c3        1 MOL      0.527653
    116 C37         7.4390    0.1270   -0.4750 c         1 MOL      0.298785
    117 O19         7.8820    0.2590    0.6660 o         1 MOL     -0.495942
    118 C38         8.3300   -1.7370   -2.0410 c3        1 MOL     -0.138257
    119 C39         9.7910   -1.7460   -1.5180 ca        1 MOL      0.149604
    120 C40        10.1050   -2.4700   -0.3460 ca        1 MOL     -0.243192
    121 C41        10.7080   -1.0370   -2.2420 ca        1 MOL     -0.243192
    122 C42        11.3830   -2.3320    0.2280 ca        1 MOL     -0.033880
    123 C43        12.0050   -0.9330   -1.6830 ca        1 MOL     -0.033880
    124 C44        12.3030   -1.5600   -0.4750 ca        1 MOL     -0.156721
    125 H51         5.9170   -1.8940   -2.6380 hn        1 MOL      0.366499
    126 H52         7.3970   -1.9660   -0.1970 h1        1 MOL      0.002615
    127 H53         8.2350   -1.0960   -2.9240 hc        1 MOL      0.030475
    128 H54         8.0950   -2.7570   -2.3770 hc        1 MOL      0.030475
    129 H55         9.2780   -2.9540    0.1500 ha        1 MOL      0.136241
    130 H56        10.4570   -0.5110   -3.1590 ha        1 MOL      0.136241
    131 H57        11.6830   -2.8480    1.1340 ha        1 MOL      0.095504
    132 H58        12.8080   -0.5190   -2.2910 ha        1 MOL      0.095504
    133 H59        13.3360   -1.5760   -0.1430 ha        1 MOL      0.094710
    134 N12         7.0980    1.2670   -1.1400 n         1 MOL     -0.187196
    135 C45         7.1520    2.6190   -0.5350 c3        1 MOL      0.234706
    136 C46         6.4160    2.6490    0.7180 c         1 MOL      0.294259
    137 O20         6.7070    3.3830    1.6510 o         1 MOL     -0.488516
    138 C47         6.5460    3.6020   -1.5410 c3        1 MOL     -0.254260
    139 C48         5.7850    2.6490   -2.5360 c3        1 MOL      0.037133
    140 C49         6.6450    1.3930   -2.4960 c3        1 MOL     -0.110029
    141 H60         8.1740    2.9320   -0.3050 h1        1 MOL      0.028679
    142 H61         5.9100    4.3770   -1.1140 hc        1 MOL      0.089587
    143 H62         7.3690    3.9790   -2.1410 hc        1 MOL      0.089587
    144 H63         4.7960    2.3490   -2.1840 hc        1 MOL      0.040999
    145 H64         5.5710    3.0290   -3.5410 hc        1 MOL      0.040999
    146 H65         6.0440    0.5330   -2.7960 h1        1 MOL      0.041236
    147 H66         7.4780    1.4070   -3.1970 h1        1 MOL      0.041236
    148 N13         5.2640    1.9130    0.7600 n         1 MOL     -0.091669
    149 C50         4.3660    1.9980    1.9290 c3        1 MOL     -0.281515
    150 C51         5.0190    1.3680    3.1140 c         1 MOL      0.513255
    151 O21         4.9370    1.8880    4.2190 o         1 MOL     -0.559045
    152 C52         2.9720    1.3670    1.6230 c3        1 MOL      0.031037
    153 C53         2.2260    2.2470    0.5480 c3        1 MOL      0.008362
    154 C54         0.8290    1.7870    0.0470 c         1 MOL      0.683411
    155 O22         0.6130    0.5930   -0.1680 o         1 MOL     -0.732104
    156 O23        -0.0450    2.5520   -0.3950 o         1 MOL     -0.732104
    157 H67         5.0570    1.2360    0.0380 hn        1 MOL      0.136364
    158 H68         4.1840    3.0440    2.1690 h1        1 MOL      0.163614
    159 H69         2.3120    1.3110    2.4950 hc        1 MOL      0.037618
    160 H70         3.0720    0.3340    1.2850 hc        1 MOL      0.037618
    161 H71         2.8340    2.4160   -0.3430 hc        1 MOL      0.010415
    162 H72         2.1760    3.2420    0.9950 hc        1 MOL      0.010415
    163 N14         5.7030    0.2310    2.8950 n         1 MOL     -0.054505
    164 C55         6.4560   -0.4900    3.9450 c3        1 MOL     -0.218055
    165 H73         7.0390    0.2240    4.5270 h1        1 MOL      0.081882
    166 H74         5.7580   -1.0100    4.6020 h1        1 MOL      0.081882
    167 H75         7.1270   -1.2130    3.4810 h1        1 MOL      0.081882
    168 H76         5.5010   -0.2480    2.0350 hn        1 MOL      0.082498
    169 Ca1        -1.3230    0.3230   -1.8130 Ca        1 MOL      1.731951
    170 O24        -3.6740   -0.7550   -2.0050 oh        1 MOL     -0.770725
    171 H77        -4.3890   -0.5960   -2.6330 ho        1 MOL      0.369733
    172 H78        -4.0600   -0.5850   -1.1500 ho        1 MOL      0.369733
    173 O25        -0.7950   -2.2310   -2.8490 oh        1 MOL     -0.770725
    174 H79        -1.4670   -2.5490   -3.4550 ho        1 MOL      0.369733
    175 H80        -0.0060   -2.1730   -3.3840 ho        1 MOL      0.369733
    176 O26        -1.8310   -0.1270   -4.4280 oh        1 MOL     -0.770725
    177 H81        -1.2230   -0.1680   -5.1600 ho        1 MOL      0.369733
    178 H82        -2.4000   -0.8930   -4.5370 ho        1 MOL      0.369733
@<TRIPOS>BOND
     1    1    2 1   
     2    1    4 1   
     3    1    5 1   
     4    1    6 1   
     5    2    3 2   
     6    2    7 1   
     7    7    8 1   
     8    7   15 1   
     9    8    9 1   
    10    8   11 1   
    11    8   16 1   
    12    9   10 2   
    13    9   19 1   
    14   11   12 1   
    15   11   17 1   
    16   11   18 1   
    17   12   13 1   
    18   12   14 1   
    19   19   20 1   
    20   19   24 1   
    21   20   21 1   
    22   20   23 1   
    23   20   25 1   
    24   21   22 2   
    25   21   29 1   
    26   23   26 1   
    27   23   27 1   
    28   23   28 1   
    29   29   30 1   
    30   29   37 1   
    31   30   31 1   
    32   30   33 1   
    33   30   38 1   
    34   31   32 2   
    35   31   41 1   
    36   33   34 1   
    37   33   39 1   
    38   33   40 1   
    39   34   35 1   
    40   34   36 1   
    41   41   42 1   
    42   41   45 1   
    43   42   43 1   
    44   42   46 1   
    45   42   47 1   
    46   43   44 2   
    47   43   48 1   
    48   48   49 1   
    49   48   56 1   
    50   49   50 1   
    51   49   52 1   
    52   49   57 1   
    53   50   51 2   
    54   50   62 1   
    55   52   53 1   
    56   52   58 1   
    57   52   59 1   
    58   53   54 1   
    59   53   55 2   
    60   54   60 1   
    61   54   61 1   
    62   62   63 1   
    63   62   66 1   
    64   63   64 1   
    65   63   67 1   
    66   63   68 1   
    67   64   65 2   
    68   64   69 1   
    69   69   70 1   
    70   69   76 1   
    71   70   71 1   
    72   70   73 1   
    73   70   77 1   
    74   71   72 2   
    75   71   83 1   
    76   73   74 1   
    77   73   75 1   
    78   73   78 1   
    79   74   80 1   
    80   74   81 1   
    81   74   82 1   
    82   75   79 1   
    83   83   84 1   
    84   83   91 1   
    85   84   85 1   
    86   84   87 1   
    87   84   92 1   
    88   85   86 2   
    89   85  102 1   
    90   87   88 1   
    91   87   89 1   
    92   87   93 1   
    93   88   90 1   
    94   88   94 1   
    95   88   95 1   
    96   89   96 1   
    97   89   97 1   
    98   89   98 1   
    99   90   99 1   
   100   90  100 1   
   101   90  101 1   
   102  102  103 1   
   103  102  110 1   
   104  103  104 1   
   105  103  106 1   
   106  103  111 1   
   107  104  105 2   
   108  104  114 1   
   109  106  107 1   
   110  106  112 1   
   111  106  113 1   
   112  107  108 1   
   113  107  109 1   
   114  114  115 1   
   115  114  125 1   
   116  115  116 1   
   117  115  118 1   
   118  115  126 1   
   119  116  117 2   
   120  116  134 1   
   121  118  119 1   
   122  118  127 1   
   123  118  128 1   
   124  119  120 ar  
   125  119  121 ar  
   126  120  122 ar  
   127  120  129 1   
   128  121  123 ar  
   129  121  130 1   
   130  122  124 ar  
   131  122  131 1   
   132  123  124 ar  
   133  123  132 1   
   134  124  133 1   
   135  134  135 1   
   136  134  140 1   
   137  135  136 1   
   138  135  138 1   
   139  135  141 1   
   140  136  137 2   
   141  136  148 1   
   142  138  139 1   
   143  138  142 1   
   144  138  143 1   
   145  139  140 1   
   146  139  144 1   
   147  139  145 1   
   148  140  146 1   
   149  140  147 1   
   150  148  149 1   
   151  148  157 1   
   152  149  150 1   
   153  149  152 1   
   154  149  158 1   
   155  150  151 2   
   156  150  163 1   
   157  152  153 1   
   158  152  159 1   
   159  152  160 1   
   160  153  154 1   
   161  153  161 1   
   162  153  162 1   
   163  154  155 1   
   164  154  156 1   
   165  163  164 1   
   166  163  168 1   
   167  164  165 1   
   168  164  166 1   
   169  164  167 1   
   170  170  171 1   
   171  170  172 1   
   172  173  174 1   
   173  173  175 1   
   174  176  177 1   
   175  176  178 1   
@<TRIPOS>SUBSTRUCTURE
     1 MOL         1 TEMP              0 ****  ****    0 ROOT
