@<TRIPOS>MOLECULE
MOL
  179   176     1     0     0
SMALL
resp


@<TRIPOS>ATOM
      1 C1          2.3740    2.4250    5.8530 c3        1 MOL     -0.304791
      2 C2          1.8770    1.9760    4.5060 c         1 MOL      0.720955
      3 O1          2.6700    1.4540    3.7400 o         1 MOL     -0.601345
      4 H1          1.7400    3.2300    6.2240 hc        1 MOL      0.076384
      5 H2          2.3420    1.5880    6.5510 hc        1 MOL      0.076384
      6 H3          3.3990    2.7840    5.7620 hc        1 MOL      0.076384
      7 N1          0.5830    2.2110    4.1490 n         1 MOL     -0.527453
      8 C3         -0.1180    2.1000    2.8450 c3        1 MOL     -0.439850
      9 C4          0.1300    3.4050    2.0720 c         1 MOL      0.775174
     10 O2         -0.4440    4.4090    2.4910 o         1 MOL     -0.554482
     11 C5         -1.5810    1.8110    3.2000 c3        1 MOL      0.079251
     12 C6         -2.3680    1.5520    1.9050 c         1 MOL      0.745024
     13 O3         -1.8420    1.3150    0.8180 o         1 MOL     -0.784756
     14 O4         -3.5950    1.5810    2.0010 o         1 MOL     -0.784756
     15 H4          0.0450    2.6160    4.8910 hn        1 MOL      0.325931
     16 H5          0.3030    1.2220    2.3520 h1        1 MOL      0.173264
     17 H6         -2.1310    2.5260    3.8130 hc        1 MOL      0.033481
     18 H7         -1.6180    0.9470    3.8650 hc        1 MOL      0.033481
     19 N2          0.9990    3.4580    1.0850 n         1 MOL     -0.306869
     20 C7          1.6220    4.6990    0.6910 c3        1 MOL     -0.137503
     21 C8          0.7190    5.5510   -0.2260 c         1 MOL      0.377849
     22 O5          0.5560    6.7490    0.0020 o         1 MOL     -0.529760
     23 C9          3.0610    4.5080    0.0600 c3        1 MOL     -0.148652
     24 C10         3.8590    5.8410   -0.0110 c3        1 MOL      0.169076
     25 C11         5.3720    5.6890   -0.3960 c3        1 MOL     -0.465450
     26 C12         6.3930    5.1310    0.6460 c3        1 MOL      0.057476
     27 N3          6.5250    6.0060    1.7830 n4        1 MOL     -0.334976
     28 H8          1.1150    2.5600    0.6240 hn        1 MOL      0.200488
     29 H9          1.7790    5.3160    1.5730 h1        1 MOL      0.107453
     30 H10         2.9230    4.1110   -0.9450 hc        1 MOL      0.095252
     31 H11         3.5660    3.8090    0.7280 hc        1 MOL      0.095252
     32 H12         3.8810    6.3890    0.9330 hc        1 MOL      0.016714
     33 H13         3.3340    6.4970   -0.7180 hc        1 MOL      0.016714
     34 H14         5.7350    6.6350   -0.8080 hc        1 MOL      0.162251
     35 H15         5.4330    4.9240   -1.1750 hc        1 MOL      0.162251
     36 H16         7.3500    4.8980    0.1820 hx        1 MOL      0.108743
     37 H17         6.0910    4.1980    1.1080 hx        1 MOL      0.108743
     38 H18         5.6140    5.9710    2.2210 hn        1 MOL      0.321798
     39 H19         7.2730    5.8200    2.4400 hn        1 MOL      0.321798
     40 H20         6.6720    6.9470    1.4360 hn        1 MOL      0.321798
     41 N4          0.1340    4.9440   -1.2570 n         1 MOL     -0.312648
     42 C13        -0.9410    5.6450   -2.0610 c3        1 MOL     -0.014861
     43 C14        -2.2940    5.6700   -1.2760 c         1 MOL      0.546627
     44 O6         -2.9680    6.6650   -1.5170 o         1 MOL     -0.564250
     45 C15        -1.0860    5.0940   -3.4770 c3        1 MOL     -0.167964
     46 C16        -1.2670    3.6230   -3.6160 c         1 MOL      0.775940
     47 O7         -1.4000    3.1090   -4.7770 o         1 MOL     -0.730720
     48 O8         -1.2550    2.9410   -2.5910 o         1 MOL     -0.730720
     49 H21         0.4130    3.9890   -1.4540 hn        1 MOL      0.313564
     50 H22        -0.6400    6.6850   -2.1950 h1        1 MOL      0.110639
     51 H23        -0.2720    5.4010   -4.1250 hc        1 MOL      0.054443
     52 H24        -1.9190    5.6410   -3.9070 hc        1 MOL      0.054443
     53 N5         -2.5640    4.7750   -0.3380 n         1 MOL     -0.072057
     54 C17        -3.7570    4.5970    0.4700 c3        1 MOL     -0.160725
     55 C18        -4.7900    3.9160   -0.3930 c         1 MOL      0.575406
     56 O9         -5.4360    4.5510   -1.1950 o         1 MOL     -0.524949
     57 H25        -1.8530    4.0550   -0.2090 hn        1 MOL      0.056630
     58 H26        -4.1770    5.5880    0.6460 h1        1 MOL      0.094249
     59 H27        -3.6450    4.2070    1.4750 h1        1 MOL      0.094249
     60 N6         -4.9410    2.5730   -0.2900 n         1 MOL     -0.470276
     61 C19        -6.0500    1.7870   -0.9230 c3        1 MOL     -0.062990
     62 C20        -6.6010    0.6260   -0.1500 c         1 MOL      0.371862
     63 O10        -7.4400   -0.0550   -0.6510 o         1 MOL     -0.476809
     64 C21        -5.6160    1.2640   -2.3100 c3        1 MOL     -0.154830
     65 C22        -4.7690    0.0080   -2.4440 c         1 MOL      0.513431
     66 N7         -5.1970   -0.9740   -3.2350 n         1 MOL     -0.652478
     67 O11        -3.7940   -0.0590   -1.6800 o         1 MOL     -0.688558
     68 H28        -4.3840    2.1030    0.4050 hn        1 MOL      0.280570
     69 H29        -6.9240    2.4230   -1.0890 h1        1 MOL      0.154625
     70 H30        -5.0990    2.0660   -2.8360 hc        1 MOL      0.084841
     71 H31        -6.5140    1.1530   -2.9200 hc        1 MOL      0.084841
     72 H32        -5.9470   -0.8120   -3.8950 hn        1 MOL      0.358135
     73 H33        -4.6610   -1.8180   -3.1700 hn        1 MOL      0.358135
     74 N8         -6.1290    0.4640    1.0500 n         1 MOL     -0.194882
     75 C23        -6.5090   -0.5840    2.0500 c3        1 MOL     -0.262858
     76 C24        -5.6100   -1.7910    2.0180 c         1 MOL      0.730262
     77 O12        -5.8100   -2.6870    2.8290 o         1 MOL     -0.581397
     78 H34        -5.4940    1.2110    1.2970 hn        1 MOL      0.262821
     79 H35        -7.5690   -0.8650    2.0620 h1        1 MOL      0.131459
     80 H36        -6.3910   -0.1470    3.0440 h1        1 MOL      0.131459
     81 N9         -4.5710   -1.7790    1.1730 n         1 MOL     -0.688443
     82 C25        -3.6110   -2.9040    1.0140 c3        1 MOL      0.117545
     83 C26        -2.1420   -2.3630    0.8440 c         1 MOL      0.629501
     84 O13        -1.8930   -1.4740    0.0350 o         1 MOL     -0.596607
     85 C27        -4.0060   -3.6800   -0.2120 c3        1 MOL      0.056660
     86 C28        -5.3760   -4.2910   -0.0970 ca        1 MOL     -0.103321
     87 C29        -6.4900   -3.5890   -0.6310 ca        1 MOL     -0.142353
     88 C30        -5.5470   -5.5650    0.5120 ca        1 MOL     -0.142353
     89 C31        -7.7730   -4.1380   -0.4310 ca        1 MOL     -0.171194
     90 C32        -6.8240   -6.1140    0.5780 ca        1 MOL     -0.171194
     91 C33        -7.9050   -5.4170    0.1340 ca        1 MOL      0.274825
     92 O14        -9.1770   -5.9950    0.2020 oh        1 MOL     -0.475258
     93 H37        -4.4460   -0.9120    0.6720 hn        1 MOL      0.536909
     94 H38        -3.6630   -3.6020    1.8420 h1        1 MOL      0.075294
     95 H39        -3.2730   -4.4270   -0.5020 hc        1 MOL      0.012942
     96 H40        -4.0580   -2.9560   -1.0250 hc        1 MOL      0.012942
     97 H41        -6.3880   -2.6030   -1.0520 ha        1 MOL      0.115678
     98 H42        -4.7060   -6.2150    0.7130 ha        1 MOL      0.115678
     99 H43        -8.6800   -3.6460   -0.7470 ha        1 MOL      0.125142
    100 H44        -6.9450   -7.1520    0.8640 ha        1 MOL      0.125142
    101 H45        -9.0570   -6.9020    0.4620 ho        1 MOL      0.336469
    102 N10        -1.2720   -2.9990    1.6040 n         1 MOL     -0.658974
    103 C34         0.1360   -2.7780    1.6580 c3        1 MOL      0.333057
    104 C35         0.8410   -3.7930    0.7580 c         1 MOL      0.438254
    105 O15         0.7670   -4.9990    1.0430 o         1 MOL     -0.546284
    106 C36         0.5740   -2.6750    3.1970 c3        1 MOL      0.095957
    107 C37        -0.1080   -1.4940    3.9720 c3        1 MOL     -0.002641
    108 C38         2.0580   -2.3950    3.1610 c3        1 MOL     -0.121028
    109 C39         0.1360   -1.5760    5.5160 c3        1 MOL     -0.321567
    110 H46        -1.6940   -3.7010    2.2020 hn        1 MOL      0.301910
    111 H47         0.3160   -1.7590    1.3240 h1        1 MOL     -0.022104
    112 H48         0.3450   -3.6160    3.6890 hc        1 MOL     -0.000506
    113 H49        -1.1540   -1.4660    3.6900 hc        1 MOL      0.027784
    114 H50         0.4180   -0.6090    3.6070 hc        1 MOL      0.027784
    115 H51         2.5350   -2.2230    4.1300 hc        1 MOL      0.021541
    116 H52         2.3810   -3.3620    2.7780 hc        1 MOL      0.021541
    117 H53         2.3380   -1.6530    2.4190 hc        1 MOL      0.021541
    118 H54         1.1920   -1.6330    5.7690 hc        1 MOL      0.089343
    119 H55        -0.2620   -0.7180    6.0570 hc        1 MOL      0.089343
    120 H56        -0.2760   -2.4980    5.9210 hc        1 MOL      0.089343
    121 N11         1.4770   -3.2590   -0.3230 n         1 MOL     -0.190581
    122 C40         2.3140   -3.9840   -1.3330 c3        1 MOL      0.041120
    123 C41         3.6770   -4.1890   -0.6910 c         1 MOL      0.221960
    124 O16         4.0990   -3.3790    0.1540 o         1 MOL     -0.236695
    125 C42         2.5430   -3.1890   -2.5730 c3        1 MOL      0.166377
    126 O17         3.6780   -3.4700   -3.3320 oh        1 MOL     -0.622409
    127 H57         1.3780   -2.2570   -0.4680 hn        1 MOL      0.130171
    128 H58         1.7550   -4.8940   -1.5760 h1        1 MOL      0.061107
    129 H59         2.6040   -2.1380   -2.2710 h1        1 MOL      0.035667
    130 H60         1.5890   -3.0560   -3.0850 h1        1 MOL      0.035667
    131 H61         3.5380   -2.9380   -4.1190 ho        1 MOL      0.421620
    132 N12         4.4160   -5.2800   -1.0080 n         1 MOL     -0.342399
    133 C43         5.7430   -5.4630   -0.5180 c3        1 MOL      0.153979
    134 C44         6.6080   -4.2880   -0.9460 c         1 MOL      0.492794
    135 O18         7.4580   -3.8730   -0.1410 o         1 MOL     -0.532331
    136 C45         6.3180   -6.7350   -1.1050 c3        1 MOL     -0.284332
    137 H62         3.9480   -5.9640   -1.5830 hn        1 MOL      0.291793
    138 H63         5.8030   -5.5010    0.5700 h1        1 MOL      0.074603
    139 H64         5.7150   -7.5820   -0.7730 hc        1 MOL      0.084364
    140 H65         6.2970   -6.6390   -2.1880 hc        1 MOL      0.084364
    141 H66         7.3480   -6.8410   -0.7810 hc        1 MOL      0.084364
    142 N13         6.3800   -3.7180   -2.1470 n         1 MOL     -0.429945
    143 C46         7.0580   -2.5230   -2.6320 c3        1 MOL      0.213239
    144 C47         6.7270   -1.2350   -1.7820 c         1 MOL      0.277423
    145 O19         7.5790   -0.2790   -1.6720 o         1 MOL     -0.504184
    146 C48         6.5810   -2.2850   -4.0790 c3        1 MOL     -0.352966
    147 H67         5.5750   -4.0630   -2.6480 hn        1 MOL      0.269284
    148 H68         8.1440   -2.6560   -2.6120 h1        1 MOL      0.084596
    149 H69         6.8060   -3.2270   -4.5800 hc        1 MOL      0.099019
    150 H70         5.5310   -1.9870   -4.1200 hc        1 MOL      0.099019
    151 H71         7.2790   -1.5190   -4.4100 hc        1 MOL      0.099019
    152 N14         5.5420   -1.1330   -1.1010 n         1 MOL      0.062709
    153 C49         5.2900   -0.0230   -0.1850 c3        1 MOL     -0.057808
    154 C50         5.8870   -0.2730    1.2590 c         1 MOL      0.412640
    155 O20         6.7080    0.4980    1.7370 o         1 MOL     -0.537265
    156 C51         3.7900    0.2700   -0.0450 c3        1 MOL     -0.286393
    157 C52         3.2190    0.6170   -1.4190 c3        1 MOL      0.050953
    158 C53         1.6870    0.7000   -1.3570 c         1 MOL      0.693889
    159 O21         1.0950   -0.3790   -1.1890 o         1 MOL     -0.738241
    160 O22         1.1450    1.7860   -1.5060 o         1 MOL     -0.738241
    161 H72         4.9320   -1.9440   -1.1190 hn        1 MOL     -0.015906
    162 H73         5.6910    0.8850   -0.6330 h1        1 MOL      0.075640
    163 H74         3.5760    1.1360    0.5690 hc        1 MOL      0.118080
    164 H75         3.2430   -0.6060    0.2990 hc        1 MOL      0.118080
    165 H76         3.4310   -0.0380   -2.2620 hc        1 MOL     -0.011964
    166 H77         3.6630    1.5460   -1.7620 hc        1 MOL     -0.011964
    167 N15         5.8090   -1.5670    1.6850 n         1 MOL      0.028155
    168 C54         6.4030   -2.1400    2.9470 c3        1 MOL     -0.365174
    169 H78         6.0930   -1.5370    3.8000 h1        1 MOL      0.135075
    170 H79         6.0550   -3.1640    3.0800 h1        1 MOL      0.135075
    171 H80         7.4910   -2.1320    2.8740 h1        1 MOL      0.135075
    172 H81         5.2540   -2.2040    1.1440 hn        1 MOL     -0.004476
    173 Ca1        -1.2420    0.4090   -1.6130 Ca        1 MOL      1.816185
    174 O23        -1.3860    0.4710   -4.2320 oh        1 MOL     -0.903741
    175 H82        -1.3210    1.4090   -4.4180 ho        1 MOL      0.421492
    176 H83        -1.8800    0.1190   -4.9730 ho        1 MOL      0.421492
    177 O24        -1.3220   -2.1070   -2.7500 oh        1 MOL     -0.903741
    178 H84        -1.2840   -1.9950   -3.6940 ho        1 MOL      0.421492
    179 H85        -1.5250   -3.0330   -2.6190 ho        1 MOL      0.421492
@<TRIPOS>BOND
     1    1    2 1   
     2    1    4 1   
     3    1    5 1   
     4    1    6 1   
     5    2    3 2   
     6    2    7 1   
     7    7    8 1   
     8    7   15 1   
     9    8    9 1   
    10    8   11 1   
    11    8   16 1   
    12    9   10 2   
    13    9   19 1   
    14   11   12 1   
    15   11   17 1   
    16   11   18 1   
    17   12   13 1   
    18   12   14 1   
    19   19   20 1   
    20   19   28 1   
    21   20   21 1   
    22   20   23 1   
    23   20   29 1   
    24   21   22 2   
    25   21   41 1   
    26   23   24 1   
    27   23   30 1   
    28   23   31 1   
    29   24   25 1   
    30   24   32 1   
    31   24   33 1   
    32   25   26 1   
    33   25   34 1   
    34   25   35 1   
    35   26   27 1   
    36   26   36 1   
    37   26   37 1   
    38   27   38 1   
    39   27   39 1   
    40   27   40 1   
    41   41   42 1   
    42   41   49 1   
    43   42   43 1   
    44   42   45 1   
    45   42   50 1   
    46   43   44 2   
    47   43   53 1   
    48   45   46 1   
    49   45   51 1   
    50   45   52 1   
    51   46   47 1   
    52   46   48 1   
    53   53   54 1   
    54   53   57 1   
    55   54   55 1   
    56   54   58 1   
    57   54   59 1   
    58   55   56 2   
    59   55   60 1   
    60   60   61 1   
    61   60   68 1   
    62   61   62 1   
    63   61   64 1   
    64   61   69 1   
    65   62   63 2   
    66   62   74 1   
    67   64   65 1   
    68   64   70 1   
    69   64   71 1   
    70   65   66 1   
    71   65   67 2   
    72   66   72 1   
    73   66   73 1   
    74   74   75 1   
    75   74   78 1   
    76   75   76 1   
    77   75   79 1   
    78   75   80 1   
    79   76   77 2   
    80   76   81 1   
    81   81   82 1   
    82   81   93 1   
    83   82   83 1   
    84   82   85 1   
    85   82   94 1   
    86   83   84 2   
    87   83  102 1   
    88   85   86 1   
    89   85   95 1   
    90   85   96 1   
    91   86   87 ar  
    92   86   88 ar  
    93   87   89 ar  
    94   87   97 1   
    95   88   90 ar  
    96   88   98 1   
    97   89   91 ar  
    98   89   99 1   
    99   90   91 ar  
   100   90  100 1   
   101   91   92 1   
   102   92  101 1   
   103  102  103 1   
   104  102  110 1   
   105  103  104 1   
   106  103  106 1   
   107  103  111 1   
   108  104  105 2   
   109  104  121 1   
   110  106  107 1   
   111  106  108 1   
   112  106  112 1   
   113  107  109 1   
   114  107  113 1   
   115  107  114 1   
   116  108  115 1   
   117  108  116 1   
   118  108  117 1   
   119  109  118 1   
   120  109  119 1   
   121  109  120 1   
   122  121  122 1   
   123  121  127 1   
   124  122  123 1   
   125  122  125 1   
   126  122  128 1   
   127  123  124 2   
   128  123  132 1   
   129  125  126 1   
   130  125  129 1   
   131  125  130 1   
   132  126  131 1   
   133  132  133 1   
   134  132  137 1   
   135  133  134 1   
   136  133  136 1   
   137  133  138 1   
   138  134  135 2   
   139  134  142 1   
   140  136  139 1   
   141  136  140 1   
   142  136  141 1   
   143  142  143 1   
   144  142  147 1   
   145  143  144 1   
   146  143  146 1   
   147  143  148 1   
   148  144  145 2   
   149  144  152 1   
   150  146  149 1   
   151  146  150 1   
   152  146  151 1   
   153  152  153 1   
   154  152  161 1   
   155  153  154 1   
   156  153  156 1   
   157  153  162 1   
   158  154  155 2   
   159  154  167 1   
   160  156  157 1   
   161  156  163 1   
   162  156  164 1   
   163  157  158 1   
   164  157  165 1   
   165  157  166 1   
   166  158  159 1   
   167  158  160 1   
   168  167  168 1   
   169  167  172 1   
   170  168  169 1   
   171  168  170 1   
   172  168  171 1   
   173  174  175 1   
   174  174  176 1   
   175  177  178 1   
   176  177  179 1   
@<TRIPOS>SUBSTRUCTURE
     1 MOL         1 TEMP              0 ****  ****    0 ROOT
