@<TRIPOS>MOLECULE
MOL
  182   178     1     0     0
SMALL
resp


@<TRIPOS>ATOM
      1 C1          2.1800    3.0540    5.6120 c3        1 MOL     -0.267070
      2 C2          1.6580    2.8940    4.1220 c         1 MOL      0.672608
      3 O1          2.5150    2.8910    3.2390 o         1 MOL     -0.612598
      4 H1          1.7870    2.2410    6.2230 hc        1 MOL      0.073538
      5 H2          3.2690    3.0210    5.6220 hc        1 MOL      0.073538
      6 H3          1.8410    4.0080    6.0170 hc        1 MOL      0.073538
      7 N1          0.3420    2.7650    3.8680 n         1 MOL     -0.540997
      8 C3         -0.2530    2.6030    2.6070 c3        1 MOL      0.007833
      9 C4         -0.1970    3.9350    1.9660 c         1 MOL      0.455974
     10 O2         -0.8030    4.9380    2.4290 o         1 MOL     -0.510563
     11 C5         -1.6520    2.0720    2.6280 c3        1 MOL     -0.282497
     12 C6         -2.1600    1.5460    1.2670 c         1 MOL      0.783101
     13 O3         -3.2970    1.0100    1.1800 o         1 MOL     -0.747639
     14 O4         -1.5140    1.8560    0.2610 o         1 MOL     -0.747639
     15 H4         -0.3420    2.9860    4.5680 hn        1 MOL      0.330216
     16 H5          0.3900    1.9960    1.9590 h1        1 MOL      0.075128
     17 H6         -2.3600    2.8450    2.9250 hc        1 MOL      0.106058
     18 H7         -1.6590    1.2460    3.3430 hc        1 MOL      0.106058
     19 N2          0.6800    3.9780    0.8990 n         1 MOL     -0.086036
     20 C7          1.1070    5.2620    0.2850 c3        1 MOL     -0.185444
     21 C8         -0.0000    5.8290   -0.5790 c         1 MOL      0.449431
     22 O5         -0.1020    7.0600   -0.6880 o         1 MOL     -0.571725
     23 C9          2.4090    5.0270   -0.5580 c3        1 MOL     -0.090578
     24 C10         3.5850    5.1220    0.4360 c3        1 MOL      0.019795
     25 C11         4.8330    5.1370   -0.4270 c3        1 MOL     -0.171622
     26 C12         6.1070    5.0910    0.4340 c3        1 MOL      0.217282
     27 N3          7.3060    5.3480   -0.3880 n4        1 MOL     -0.499227
     28 H8          1.0440    3.1010    0.5480 hn        1 MOL      0.199789
     29 H9          1.2420    6.0230    1.0590 h1        1 MOL      0.126770
     30 H10         2.4490    5.8230   -1.2940 hc        1 MOL      0.060318
     31 H11         2.3990    4.0950   -1.1190 hc        1 MOL      0.060318
     32 H12         3.5980    4.2500    1.0950 hc        1 MOL      0.051432
     33 H13         3.4850    5.9940    1.0790 hc        1 MOL      0.051432
     34 H14         4.7530    6.0240   -1.0690 hc        1 MOL      0.056191
     35 H15         4.8030    4.2630   -1.0800 hc        1 MOL      0.056191
     36 H16         6.1380    4.1610    0.9860 hx        1 MOL      0.047300
     37 H17         6.0110    5.8510    1.2140 hx        1 MOL      0.047300
     38 H18         7.2520    6.3240   -0.6710 hn        1 MOL      0.356036
     39 H19         8.1580    5.2380    0.1470 hn        1 MOL      0.356036
     40 H20         7.4240    4.7550   -1.1980 hn        1 MOL      0.356036
     41 N4         -0.9130    5.0360   -1.0460 n         1 MOL     -0.103327
     42 C13        -2.1880    5.4010   -1.7240 c3        1 MOL     -0.074153
     43 C14        -3.4450    5.1080   -0.9200 c         1 MOL      0.430139
     44 O6         -4.4570    5.6880   -1.2380 o         1 MOL     -0.493361
     45 C15        -2.3440    4.8650   -3.1890 c3        1 MOL     -0.275233
     46 C16        -2.2680    3.3770   -3.4380 c         1 MOL      0.832464
     47 O7         -1.8140    2.6460   -2.5310 o         1 MOL     -0.738309
     48 O8         -2.5280    3.0230   -4.6000 o         1 MOL     -0.738309
     49 H21        -0.8360    4.0500   -0.8370 hn        1 MOL      0.096152
     50 H22        -2.1500    6.4840   -1.8350 h1        1 MOL      0.123347
     51 H23        -1.4940    5.2560   -3.7470 hc        1 MOL      0.086628
     52 H24        -3.2990    5.2020   -3.5960 hc        1 MOL      0.086628
     53 N5         -3.3760    4.2850    0.1640 n         1 MOL     -0.024233
     54 C17        -4.4930    4.0050    1.0610 c3        1 MOL     -0.067955
     55 C18        -5.6080    3.2570    0.1890 c         1 MOL      0.416971
     56 O9         -6.7860    3.6190    0.3000 o         1 MOL     -0.515687
     57 H25        -2.4870    3.8730    0.3860 hn        1 MOL     -0.015288
     58 H26        -4.9150    4.9470    1.3910 h1        1 MOL      0.075033
     59 H27        -4.2030    3.4210    1.9330 h1        1 MOL      0.075033
     60 N6         -5.2570    2.1400   -0.5460 n         1 MOL     -0.192407
     61 C19        -6.2520    1.1560   -0.9940 c3        1 MOL     -0.008106
     62 C20        -6.6960    0.0960    0.0470 c         1 MOL      0.405544
     63 O10        -7.3770   -0.8940   -0.3160 o         1 MOL     -0.471848
     64 C21        -5.8500    0.6100   -2.4040 c3        1 MOL     -0.206982
     65 C22        -4.7990   -0.5310   -2.3430 c         1 MOL      0.456466
     66 N7         -5.2640   -1.6320   -2.8380 n         1 MOL     -0.619547
     67 O11        -3.6730   -0.4490   -1.9470 o         1 MOL     -0.501269
     68 H28        -4.2960    1.8360   -0.5330 hn        1 MOL      0.112792
     69 H29        -7.2080    1.6360   -1.1890 h1        1 MOL      0.118358
     70 H30        -5.4450    1.4810   -2.9250 hc        1 MOL      0.107494
     71 H31        -6.7780    0.3070   -2.8840 hc        1 MOL      0.107494
     72 H32        -6.0130   -1.6090   -3.5090 hn        1 MOL      0.335307
     73 H33        -4.6330   -2.4290   -2.8710 hn        1 MOL      0.335307
     74 N8         -6.2810    0.2750    1.3430 n         1 MOL     -0.353206
     75 C23        -6.5630   -0.7430    2.3370 c3        1 MOL     -0.187798
     76 C24        -5.6220   -1.9670    2.2220 c         1 MOL      0.432129
     77 O12        -5.6600   -2.8680    3.0790 o         1 MOL     -0.556381
     78 H34        -5.4910    0.8990    1.3750 hn        1 MOL      0.311269
     79 H35        -7.5680   -1.1490    2.2430 h1        1 MOL      0.139400
     80 H36        -6.4880   -0.3220    3.3370 h1        1 MOL      0.139400
     81 N9         -4.6510   -2.0060    1.2900 n         1 MOL      0.024891
     82 C25        -3.5330   -3.0300    1.2800 c3        1 MOL     -0.000605
     83 C26        -2.0830   -2.4230    1.1670 c         1 MOL      0.405117
     84 O13        -1.8880   -1.4060    0.4650 o         1 MOL     -0.567197
     85 C27        -3.7750   -3.9890    0.1260 c3        1 MOL      0.226200
     86 C28        -5.0360   -4.8470    0.0920 ca        1 MOL      0.034098
     87 C29        -6.2180   -4.2440   -0.4080 ca        1 MOL     -0.257782
     88 C30        -5.0940   -6.1600    0.5710 ca        1 MOL     -0.257782
     89 C31        -7.4550   -4.9320   -0.4650 ca        1 MOL     -0.128344
     90 C32        -6.3400   -6.8090    0.5570 ca        1 MOL     -0.128344
     91 C33        -7.4930   -6.2560    0.0120 ca        1 MOL      0.248480
     92 O14        -8.5850   -7.0720   -0.2360 oh        1 MOL     -0.469275
     93 H37        -4.3670   -1.1540    0.8350 hn        1 MOL      0.151201
     94 H38        -3.4740   -3.5640    2.2260 h1        1 MOL      0.035619
     95 H39        -2.9690   -4.7160   -0.0070 hc        1 MOL     -0.058035
     96 H40        -3.8430   -3.4190   -0.7990 hc        1 MOL     -0.058035
     97 H41        -6.2070   -3.2630   -0.8710 ha        1 MOL      0.134728
     98 H42        -4.2220   -6.6510    0.9910 ha        1 MOL      0.134728
     99 H43        -8.1900   -4.4510   -1.0960 ha        1 MOL      0.116070
    100 H44        -6.4250   -7.8340    0.8930 ha        1 MOL      0.116070
    101 H45        -8.4070   -7.9530    0.0960 ho        1 MOL      0.337622
    102 N10        -1.0640   -2.9780    1.8570 n         1 MOL     -0.463325
    103 C34         0.3250   -2.5410    1.7930 c3        1 MOL      0.036431
    104 C35         1.2270   -3.5890    1.0760 c         1 MOL      0.456862
    105 O15         1.4440   -4.7230    1.4820 o         1 MOL     -0.531827
    106 C36         0.8230   -2.1070    3.1910 c3        1 MOL      0.173311
    107 C37         0.1280   -0.8640    3.7930 c3        1 MOL      0.024532
    108 C38         2.3890   -1.8400    3.1200 c3        1 MOL     -0.102798
    109 C39         0.1600   -0.7860    5.3410 c3        1 MOL     -0.449824
    110 H46        -1.2770   -3.7210    2.5150 hn        1 MOL      0.307563
    111 H47         0.3480   -1.5940    1.2360 h1        1 MOL      0.008246
    112 H48         0.7030   -2.9860    3.8330 hc        1 MOL      0.002441
    113 H49        -0.9390   -0.9290    3.5780 hc        1 MOL      0.048497
    114 H50         0.4830    0.0540    3.3260 hc        1 MOL      0.048497
    115 H51         2.8490   -2.7160    2.6490 hc        1 MOL      0.008187
    116 H52         2.7000   -1.0160    2.4810 hc        1 MOL      0.008187
    117 H53         2.9280   -1.7590    4.0650 hc        1 MOL      0.008187
    118 H54         1.1930   -0.7350    5.6930 hc        1 MOL      0.111602
    119 H55        -0.5070    0.0100    5.6580 hc        1 MOL      0.111602
    120 H56        -0.0910   -1.7340    5.8310 hc        1 MOL      0.111602
    121 N11         1.8590   -3.1070    0.0150 n         1 MOL     -0.133016
    122 C40         2.7460   -3.8820   -0.9010 c3        1 MOL     -0.163106
    123 C41         4.1950   -4.0730   -0.4440 c         1 MOL      0.439139
    124 O16         4.7020   -3.3210    0.4180 o         1 MOL     -0.326294
    125 C42         2.7110   -3.2990   -2.3030 c3        1 MOL     -0.096184
    126 O17         3.4130   -2.0960   -2.3230 oh        1 MOL     -0.409629
    127 H57         1.7530   -2.1440   -0.2550 hn        1 MOL      0.195511
    128 H58         2.3520   -4.8720   -1.1130 h1        1 MOL      0.092366
    129 H59         1.6480   -3.1640   -2.5000 h1        1 MOL      0.111400
    130 H60         3.1800   -3.9810   -3.0130 h1        1 MOL      0.111400
    131 H61         2.9470   -1.5100   -1.7190 ho        1 MOL      0.252974
    132 N12         4.9900   -5.0780   -0.8950 n         1 MOL     -0.437372
    133 C43         6.4080   -5.2000   -0.5550 c3        1 MOL      0.115094
    134 C44         7.1990   -3.9560   -1.0050 c         1 MOL      0.395320
    135 O18         8.0850   -3.4860   -0.2270 o         1 MOL     -0.503658
    136 C45         6.8640   -6.4970   -1.2520 c3        1 MOL     -0.226737
    137 H62         4.6540   -5.7260   -1.5910 hn        1 MOL      0.291519
    138 H63         6.5080   -5.2630    0.5200 h1        1 MOL      0.093954
    139 H64         6.6890   -6.4410   -2.3190 hc        1 MOL      0.073491
    140 H65         7.9030   -6.7050   -0.9980 hc        1 MOL      0.073491
    141 H66         6.2740   -7.3380   -0.8880 hc        1 MOL      0.073491
    142 N13         6.9530   -3.3840   -2.1220 n         1 MOL     -0.321901
    143 C46         7.4190   -2.0200   -2.4860 c3        1 MOL      0.046401
    144 C47         7.2090   -0.9070   -1.4140 c         1 MOL      0.379863
    145 O19         8.1480   -0.2030   -1.1130 o         1 MOL     -0.528602
    146 C48         6.9090   -1.6270   -3.9110 c3        1 MOL     -0.310157
    147 H67         6.3120   -3.7910   -2.7870 hn        1 MOL      0.274809
    148 H68         8.4840   -2.2660   -2.4700 h1        1 MOL      0.094086
    149 H69         7.1010   -2.4460   -4.5910 hc        1 MOL      0.090468
    150 H70         5.8260   -1.4890   -3.8780 hc        1 MOL      0.090468
    151 H71         7.4520   -0.7130   -4.1750 hc        1 MOL      0.090468
    152 N14         6.0570   -0.8230   -0.8360 n         1 MOL      0.025044
    153 C49         5.6650    0.2270    0.1940 c3        1 MOL     -0.172131
    154 C50         6.1830   -0.0340    1.5980 c         1 MOL      0.439992
    155 O20         6.6690    0.8390    2.3030 o         1 MOL     -0.567495
    156 C51         4.1660    0.2780    0.2250 c3        1 MOL      0.109799
    157 C52         3.5830    0.9320   -1.0180 c3        1 MOL     -0.071318
    158 C53         2.0430    0.6930   -1.0410 c         1 MOL      0.644114
    159 O21         1.4860   -0.4670   -0.9910 o         1 MOL     -0.650557
    160 O22         1.2900    1.6860   -1.0360 o         1 MOL     -0.650557
    161 H72         5.3490   -1.4720   -1.1330 hn        1 MOL      0.096250
    162 H73         6.1350    1.1440   -0.1510 h1        1 MOL      0.089331
    163 H74         3.8730    0.9510    1.0390 hc        1 MOL      0.035272
    164 H75         3.6890   -0.6980    0.3660 hc        1 MOL      0.035272
    165 H76         4.0300    0.4150   -1.8610 hc        1 MOL     -0.021239
    166 H77         3.9130    1.9710   -1.0890 hc        1 MOL     -0.021239
    167 N15         6.1520   -1.2690    1.9700 n         1 MOL      0.045301
    168 C54         6.6660   -1.8990    3.1570 c3        1 MOL     -0.289034
    169 H78         6.0100   -2.7200    3.4440 h1        1 MOL      0.113430
    170 H79         7.6660   -2.2840    2.9600 h1        1 MOL      0.113430
    171 H80         6.7090   -1.1700    3.9660 h1        1 MOL      0.113430
    172 H81         5.8160   -1.9170    1.2740 hn        1 MOL     -0.012579
    173 Ca1        -1.0360    0.3330   -1.7680 Ca        1 MOL      1.772632
    174 O23        -0.9060   -2.2090   -2.7410 oh        1 MOL     -0.845491
    175 H82        -0.4660   -3.0490   -2.6110 ho        1 MOL      0.406216
    176 H83        -1.6970   -2.4190   -3.2350 ho        1 MOL      0.406216
    177 O24        -2.1450    0.4230   -4.7710 oh        1 MOL     -0.845491
    178 H84        -2.4130    1.3190   -4.5820 ho        1 MOL      0.406216
    179 H85        -1.4510    0.5160   -5.4180 ho        1 MOL      0.406216
    180 O25         0.5590    0.6340   -4.0060 oh        1 MOL     -0.845491
    181 H86         0.9250    1.5190   -4.0150 ho        1 MOL      0.406216
    182 H87         1.0540    0.1500   -4.6710 ho        1 MOL      0.406216
@<TRIPOS>BOND
     1    1    2 1   
     2    1    4 1   
     3    1    5 1   
     4    1    6 1   
     5    2    3 2   
     6    2    7 1   
     7    7    8 1   
     8    7   15 1   
     9    8    9 1   
    10    8   11 1   
    11    8   16 1   
    12    9   10 2   
    13    9   19 1   
    14   11   12 1   
    15   11   17 1   
    16   11   18 1   
    17   12   13 1   
    18   12   14 1   
    19   19   20 1   
    20   19   28 1   
    21   20   21 1   
    22   20   23 1   
    23   20   29 1   
    24   21   22 2   
    25   21   41 1   
    26   23   24 1   
    27   23   30 1   
    28   23   31 1   
    29   24   25 1   
    30   24   32 1   
    31   24   33 1   
    32   25   26 1   
    33   25   34 1   
    34   25   35 1   
    35   26   27 1   
    36   26   36 1   
    37   26   37 1   
    38   27   38 1   
    39   27   39 1   
    40   27   40 1   
    41   41   42 1   
    42   41   49 1   
    43   42   43 1   
    44   42   45 1   
    45   42   50 1   
    46   43   44 2   
    47   43   53 1   
    48   45   46 1   
    49   45   51 1   
    50   45   52 1   
    51   46   47 1   
    52   46   48 1   
    53   53   54 1   
    54   53   57 1   
    55   54   55 1   
    56   54   58 1   
    57   54   59 1   
    58   55   56 2   
    59   55   60 1   
    60   60   61 1   
    61   60   68 1   
    62   61   62 1   
    63   61   64 1   
    64   61   69 1   
    65   62   63 2   
    66   62   74 1   
    67   64   65 1   
    68   64   70 1   
    69   64   71 1   
    70   65   66 1   
    71   65   67 2   
    72   66   72 1   
    73   66   73 1   
    74   74   75 1   
    75   74   78 1   
    76   75   76 1   
    77   75   79 1   
    78   75   80 1   
    79   76   77 2   
    80   76   81 1   
    81   81   82 1   
    82   81   93 1   
    83   82   83 1   
    84   82   85 1   
    85   82   94 1   
    86   83   84 2   
    87   83  102 1   
    88   85   86 1   
    89   85   95 1   
    90   85   96 1   
    91   86   87 ar  
    92   86   88 ar  
    93   87   89 ar  
    94   87   97 1   
    95   88   90 ar  
    96   88   98 1   
    97   89   91 ar  
    98   89   99 1   
    99   90   91 ar  
   100   90  100 1   
   101   91   92 1   
   102   92  101 1   
   103  102  103 1   
   104  102  110 1   
   105  103  104 1   
   106  103  106 1   
   107  103  111 1   
   108  104  105 2   
   109  104  121 1   
   110  106  107 1   
   111  106  108 1   
   112  106  112 1   
   113  107  109 1   
   114  107  113 1   
   115  107  114 1   
   116  108  115 1   
   117  108  116 1   
   118  108  117 1   
   119  109  118 1   
   120  109  119 1   
   121  109  120 1   
   122  121  122 1   
   123  121  127 1   
   124  122  123 1   
   125  122  125 1   
   126  122  128 1   
   127  123  124 2   
   128  123  132 1   
   129  125  126 1   
   130  125  129 1   
   131  125  130 1   
   132  126  131 1   
   133  132  133 1   
   134  132  137 1   
   135  133  134 1   
   136  133  136 1   
   137  133  138 1   
   138  134  135 2   
   139  134  142 1   
   140  136  139 1   
   141  136  140 1   
   142  136  141 1   
   143  142  143 1   
   144  142  147 1   
   145  143  144 1   
   146  143  146 1   
   147  143  148 1   
   148  144  145 2   
   149  144  152 1   
   150  146  149 1   
   151  146  150 1   
   152  146  151 1   
   153  152  153 1   
   154  152  161 1   
   155  153  154 1   
   156  153  156 1   
   157  153  162 1   
   158  154  155 2   
   159  154  167 1   
   160  156  157 1   
   161  156  163 1   
   162  156  164 1   
   163  157  158 1   
   164  157  165 1   
   165  157  166 1   
   166  158  159 1   
   167  158  160 1   
   168  167  168 1   
   169  167  172 1   
   170  168  169 1   
   171  168  170 1   
   172  168  171 1   
   173  174  175 1   
   174  174  176 1   
   175  177  178 1   
   176  177  179 1   
   177  180  181 1   
   178  180  182 1   
@<TRIPOS>SUBSTRUCTURE
     1 MOL         1 TEMP              0 ****  ****    0 ROOT
