@<TRIPOS>MOLECULE
MOL
  189   185     1     0     0
SMALL
resp


@<TRIPOS>ATOM
      1 C1          0.4730    1.7170    5.7460 c3        1 MOL     -0.443981
      2 C2         -0.1050    1.6990    4.3700 c         1 MOL      0.919233
      3 O1          0.5530    1.9770    3.4440 o         1 MOL     -0.676052
      4 H1          1.4140    1.1670    5.7530 hc        1 MOL      0.100297
      5 H2          0.6540    2.7480    6.0510 hc        1 MOL      0.100297
      6 H3         -0.2260    1.2490    6.4400 hc        1 MOL      0.100297
      7 N1         -1.3750    1.4330    4.2090 n         1 MOL     -0.800060
      8 C3         -2.0480    1.4170    2.9250 c3        1 MOL      0.404275
      9 C4         -2.5510    2.8480    2.4480 c         1 MOL      0.440246
     10 O2         -3.2650    3.4710    3.1780 o         1 MOL     -0.561670
     11 C5         -3.1960    0.3330    3.0480 c3        1 MOL     -0.150245
     12 C6         -3.8350    0.1120    1.6640 c         1 MOL      0.764735
     13 O3         -3.1960    0.6270    0.7000 o         1 MOL     -0.716479
     14 O4         -4.9190   -0.4880    1.4900 o         1 MOL     -0.716479
     15 H4         -1.8320    1.0620    5.0240 hn        1 MOL      0.344318
     16 H5         -1.3780    0.9590    2.1990 h1        1 MOL     -0.015988
     17 H6         -3.9200    0.6230    3.8130 hc        1 MOL      0.020260
     18 H7         -2.7390   -0.6000    3.3490 hc        1 MOL      0.020260
     19 N2         -2.1130    3.2600    1.2670 n         1 MOL     -0.113876
     20 C7         -2.1070    4.6760    0.8770 c3        1 MOL     -0.045256
     21 C8         -3.1100    5.0280   -0.1420 c         1 MOL      0.560260
     22 O5         -3.3440    6.1720   -0.4800 o         1 MOL     -0.585316
     23 C9         -0.7430    5.1400    0.4480 c3        1 MOL      0.017306
     24 C10         0.3660    4.9260    1.5210 c3        1 MOL     -0.101771
     25 C11         0.3190    5.6890    2.7950 c3        1 MOL     -0.205786
     26 C12         1.6980    5.5570    3.5210 c3        1 MOL      0.122269
     27 N3          1.7230    6.2120    4.8580 n4        1 MOL     -0.433162
     28 H8         -1.7270    2.5860    0.6180 hn        1 MOL      0.153194
     29 H9         -2.5280    5.2570    1.6930 h1        1 MOL      0.050876
     30 H10        -0.8220    6.1740    0.1130 hc        1 MOL      0.020729
     31 H11        -0.3880    4.6360   -0.4460 hc        1 MOL      0.020729
     32 H12         1.3170    5.1920    1.0490 hc        1 MOL      0.069514
     33 H13         0.5470    3.8630    1.6970 hc        1 MOL      0.069514
     34 H14        -0.4500    5.2520    3.4200 hc        1 MOL      0.079185
     35 H15         0.0520    6.7280    2.6320 hc        1 MOL      0.079185
     36 H16         2.4190    5.9080    2.7820 hx        1 MOL      0.075103
     37 H17         1.8890    4.5020    3.6930 hx        1 MOL      0.075103
     38 H18         1.1910    5.7510    5.5760 hn        1 MOL      0.341364
     39 H19         2.7050    6.1670    5.0890 hn        1 MOL      0.341364
     40 H20         1.3800    7.1600    4.8780 hn        1 MOL      0.341364
     41 N4         -3.7230    4.0260   -0.8190 n         1 MOL     -0.442371
     42 C13        -4.6710    4.1240   -1.9450 c3        1 MOL      0.159787
     43 C14        -5.8610    3.2010   -1.6180 c         1 MOL      0.341813
     44 O6         -6.8350    3.1870   -2.3610 o         1 MOL     -0.485924
     45 C15        -4.0200    3.6190   -3.2870 c3        1 MOL     -0.397702
     46 C16        -3.2580    2.2980   -3.1780 c         1 MOL      0.839700
     47 O7         -2.5820    1.9920   -4.1950 o         1 MOL     -0.702610
     48 O8         -3.3770    1.4360   -2.2470 o         1 MOL     -0.702610
     49 H21        -3.2650    3.1540   -0.5720 hn        1 MOL      0.220830
     50 H22        -5.0100    5.1520   -2.0630 h1        1 MOL      0.102630
     51 H23        -3.3440    4.4260   -3.5810 hc        1 MOL      0.105373
     52 H24        -4.7510    3.4670   -4.0720 hc        1 MOL      0.105373
     53 N5         -5.8390    2.5650   -0.4070 n         1 MOL     -0.202529
     54 C17        -6.8770    1.7780    0.1970 c3        1 MOL     -0.182901
     55 C18        -7.3110    0.6040   -0.6560 c         1 MOL      0.529847
     56 O9         -8.4980    0.2500   -0.7800 o         1 MOL     -0.610967
     57 H25        -4.9700    2.4980    0.0850 hn        1 MOL      0.141126
     58 H26        -7.7410    2.4210    0.3380 h1        1 MOL      0.102427
     59 H27        -6.4740    1.4300    1.1500 h1        1 MOL      0.102427
     60 N6         -6.4400   -0.0580   -1.3560 n         1 MOL     -0.181845
     61 C19        -6.8130   -1.2570   -2.1070 c3        1 MOL     -0.092808
     62 C20        -6.9400   -2.5120   -1.2670 c         1 MOL      0.468702
     63 O10        -7.4380   -3.5120   -1.7680 o         1 MOL     -0.559542
     64 C21        -5.7650   -1.6360   -3.2060 c3        1 MOL     -0.384016
     65 C22        -4.3030   -1.6430   -2.6960 c         1 MOL      0.824314
     66 O11        -3.9880   -1.9230   -1.5160 o         1 MOL     -0.729838
     67 O12        -3.4150   -1.3070   -3.4670 o         1 MOL     -0.729838
     68 H28        -5.4620    0.1610   -1.2520 hn        1 MOL      0.264828
     69 H29        -7.8180   -1.1380   -2.5240 h1        1 MOL      0.149982
     70 H30        -5.8250   -0.8290   -3.9330 hc        1 MOL      0.117573
     71 H31        -5.9380   -2.5830   -3.7100 hc        1 MOL      0.117573
     72 N7         -6.6100   -2.3930    0.0260 n         1 MOL     -0.156896
     73 C23        -6.5730   -3.3870    1.1310 c3        1 MOL     -0.399882
     74 C24        -5.2500   -4.1190    1.2370 c         1 MOL      0.626598
     75 O13        -5.1650   -5.0520    2.0380 o         1 MOL     -0.599257
     76 H32        -6.2870   -1.4860    0.3210 hn        1 MOL      0.219344
     77 H33        -7.3050   -4.1500    0.8810 h1        1 MOL      0.171446
     78 H34        -6.6860   -2.8840    2.0990 h1        1 MOL      0.171446
     79 N8         -4.0880   -3.6770    0.7100 n         1 MOL     -0.212523
     80 C25        -2.7960   -4.3550    0.8070 c3        1 MOL     -0.204800
     81 C26        -1.6570   -3.3810    1.0060 c         1 MOL      0.798246
     82 O14        -1.8050   -2.1690    0.7360 o         1 MOL     -0.726327
     83 C27        -2.5150   -5.2850   -0.4120 c3        1 MOL      0.581450
     84 C28        -3.0720   -6.7170   -0.4470 c3        1 MOL     -0.354755
     85 O15        -3.0020   -4.6680   -1.5620 oh        1 MOL     -0.675519
     86 H35        -4.0880   -2.9780   -0.0200 hn        1 MOL      0.128683
     87 H36        -2.8180   -5.0090    1.6730 h1        1 MOL      0.086368
     88 H37        -1.4520   -5.5230   -0.4240 h1        1 MOL     -0.041865
     89 H38        -3.7310   -4.0610   -1.4520 ho        1 MOL      0.432562
     90 H39        -2.7270   -7.2610    0.4340 hc        1 MOL      0.077666
     91 H40        -4.1390   -6.5150   -0.3950 hc        1 MOL      0.077666
     92 H41        -2.8300   -7.0920   -1.4440 hc        1 MOL      0.077666
     93 N9         -0.5020   -3.8780    1.4440 n         1 MOL     -0.673681
     94 C29         0.6820   -3.0620    1.6540 c3        1 MOL      0.010804
     95 C30         1.8320   -3.5260    0.8600 c         1 MOL      0.478076
     96 O16         2.3290   -4.6930    0.9440 o         1 MOL     -0.558706
     97 C31         1.1640   -3.0340    3.1530 c3        1 MOL      0.437806
     98 C32         0.1040   -2.9120    4.2910 c3        1 MOL      0.009402
     99 C33         2.2170   -1.9090    3.3400 c3        1 MOL     -0.593713
    100 C34         0.6020   -3.0820    5.7790 c3        1 MOL     -0.204431
    101 H42        -0.4510   -4.8690    1.5980 hn        1 MOL      0.314538
    102 H43         0.4650   -2.0130    1.4350 h1        1 MOL      0.148091
    103 H44         1.7290   -3.9560    3.3060 hc        1 MOL     -0.074507
    104 H45        -0.6220   -3.7050    4.0900 hc        1 MOL     -0.006094
    105 H46        -0.3470   -1.9180    4.1750 hc        1 MOL     -0.006094
    106 H47         2.4840   -1.8560    4.3970 hc        1 MOL      0.113503
    107 H48         3.0120   -2.1480    2.6470 hc        1 MOL      0.113503
    108 H49         1.8110   -0.9340    3.0580 hc        1 MOL      0.113503
    109 H50         1.2700   -3.9380    5.8740 hc        1 MOL      0.053499
    110 H51         1.2390   -2.2480    6.0830 hc        1 MOL      0.053499
    111 H52        -0.2030   -3.1550    6.5150 hc        1 MOL      0.053499
    112 N10         2.3480   -2.6730   -0.0440 n         1 MOL     -0.108216
    113 C35         3.5000   -2.8940   -0.9020 c3        1 MOL     -0.057102
    114 C36         4.8720   -2.6810   -0.1690 c         1 MOL      0.381580
    115 O17         4.9270   -2.0130    0.8720 o         1 MOL     -0.348121
    116 C37         3.4780   -2.0110   -2.1980 c3        1 MOL      0.033715
    117 C38         2.2680   -2.3820   -3.0010 c3        1 MOL     -0.401399
    118 O18         3.4970   -0.6600   -1.9090 oh        1 MOL     -0.236325
    119 H53         1.9350   -1.7570    0.0130 hn        1 MOL      0.138007
    120 H54         3.5980   -3.9430   -1.2110 h1        1 MOL      0.085070
    121 H55         4.3750   -2.1830   -2.7840 h1        1 MOL      0.057181
    122 H56         3.2150   -0.1520   -2.6820 ho        1 MOL      0.352690
    123 H57         1.3870   -2.0270   -2.4730 hc        1 MOL      0.122579
    124 H58         2.4970   -1.9710   -3.9860 hc        1 MOL      0.122579
    125 H59         2.2830   -3.4660   -3.1250 hc        1 MOL      0.122579
    126 N11         5.9530   -3.0580   -0.7680 n         1 MOL     -0.247777
    127 C39         7.2870   -2.6590   -0.3090 c3        1 MOL     -0.288354
    128 C40         7.5360   -1.2050   -0.4080 c         1 MOL      0.379660
    129 O19         8.2010   -0.6280    0.4300 o         1 MOL     -0.464806
    130 C41         8.4430   -3.3880   -1.0550 c3        1 MOL      0.315802
    131 C42         8.4520   -4.8460   -0.5500 c3        1 MOL     -0.287523
    132 O20         8.2800   -3.5120   -2.4650 oh        1 MOL     -0.614458
    133 H60         5.9270   -3.6690   -1.5780 hn        1 MOL      0.291062
    134 H61         7.3650   -2.9220    0.7480 h1        1 MOL      0.199011
    135 H62         9.3920   -2.9050   -0.8310 h1        1 MOL      0.054890
    136 H63         9.1010   -3.3180   -2.9120 ho        1 MOL      0.404754
    137 H64         9.3010   -5.4500   -0.8700 hc        1 MOL      0.083203
    138 H65         8.4450   -4.8240    0.5330 hc        1 MOL      0.083203
    139 H66         7.5490   -5.3130   -0.9520 hc        1 MOL      0.083203
    140 N12         6.7810   -0.5490   -1.3320 n         1 MOL     -0.076767
    141 C43         6.8290    0.8330   -1.5600 c3        1 MOL     -0.154317
    142 C44         6.0700    1.6700   -0.5150 c         1 MOL      0.363699
    143 O21         6.5380    2.6910   -0.0110 o         1 MOL     -0.512576
    144 C45         6.2710    1.1460   -2.9910 c3        1 MOL     -0.063831
    145 C46         6.4440    2.6250   -3.4230 c3        1 MOL     -0.016450
    146 C47         5.8830    2.8340   -4.7900 c3        1 MOL      0.013095
    147 C48         5.9260    4.3320   -5.1620 c3        1 MOL      0.090031
    148 N13         4.9990    4.8020   -6.2400 n4        1 MOL     -0.533628
    149 H67         6.3840   -1.1680   -2.0150 hn        1 MOL      0.139621
    150 H68         7.8930    1.0930   -1.5260 h1        1 MOL      0.121453
    151 H69         5.2180    0.8800   -3.0100 hc        1 MOL      0.032367
    152 H70         6.7290    0.5360   -3.7680 hc        1 MOL      0.032367
    153 H71         7.4840    2.9220   -3.4480 hc        1 MOL      0.030653
    154 H72         6.0070    3.2960   -2.6890 hc        1 MOL      0.030653
    155 H73         4.8630    2.4420   -4.8400 hc        1 MOL      0.018780
    156 H74         6.4310    2.2650   -5.5490 hc        1 MOL      0.018780
    157 H75         6.9760    4.4810   -5.4020 hx        1 MOL      0.079509
    158 H76         5.8930    4.9890   -4.2930 hx        1 MOL      0.079509
    159 H77         4.0250    4.7750   -5.9940 hn        1 MOL      0.379081
    160 H78         5.1710    5.7810   -6.4380 hn        1 MOL      0.379081
    161 H79         5.1600    4.2070   -7.0340 hn        1 MOL      0.379081
    162 N14         5.0300    1.0350    0.0830 n         1 MOL      0.345746
    163 C49         4.1240    1.5970    1.1020 c3        1 MOL     -0.233723
    164 C50         4.9660    1.4710    2.4320 c         1 MOL      0.493242
    165 O22         5.1070    2.5000    3.0640 o         1 MOL     -0.560757
    166 C51         2.7280    0.9750    0.9850 c3        1 MOL      0.022652
    167 C52         1.9870    1.5840   -0.1200 c3        1 MOL      0.068905
    168 C53         0.6150    0.9600   -0.2040 c         1 MOL      0.637684
    169 O23         0.4960   -0.2560   -0.3350 o         1 MOL     -0.677182
    170 O24        -0.3110    1.7150   -0.3600 o         1 MOL     -0.677182
    171 H80         4.7540    0.1280   -0.2690 hn        1 MOL     -0.429666
    172 H81         4.1540    2.6420    0.7850 h1        1 MOL      0.053485
    173 H82         2.2080    1.1810    1.9200 hc        1 MOL      0.057624
    174 H83         2.8550   -0.1080    0.8720 hc        1 MOL      0.057624
    175 H84         2.4720    1.4710   -1.0970 hc        1 MOL     -0.053414
    176 H85         1.8360    2.6470    0.0530 hc        1 MOL     -0.053414
    177 N15         5.4920    0.2850    2.7560 n         1 MOL     -0.119047
    178 C54         6.3900    0.1750    3.8740 c3        1 MOL     -0.344101
    179 H86         6.7630   -0.8470    3.9400 h1        1 MOL      0.120684
    180 H87         7.2280    0.8580    3.7350 h1        1 MOL      0.120684
    181 H88         5.8610    0.4290    4.7920 h1        1 MOL      0.120684
    182 H89         5.2940   -0.5410    2.2130 hn        1 MOL      0.210406
    183 Ca1        -1.8570   -0.5010   -1.2900 Ca        1 MOL      1.749955
    184 O25        -0.6890    0.4770   -3.5180 oh        1 MOL     -0.916135
    185 H90        -1.3980    1.0520   -3.8160 ho        1 MOL      0.405183
    186 H91        -0.4250   -0.0060   -4.3030 ho        1 MOL      0.405183
    187 O26        -0.9350   -3.0130   -2.1850 oh        1 MOL     -0.916135
    188 H92        -0.4530   -3.2650   -2.9710 ho        1 MOL      0.405183
    189 H93        -1.5430   -3.7300   -2.0320 ho        1 MOL      0.405183
@<TRIPOS>BOND
     1    1    2 1   
     2    1    4 1   
     3    1    5 1   
     4    1    6 1   
     5    2    3 2   
     6    2    7 1   
     7    7    8 1   
     8    7   15 1   
     9    8    9 1   
    10    8   11 1   
    11    8   16 1   
    12    9   10 2   
    13    9   19 1   
    14   11   12 1   
    15   11   17 1   
    16   11   18 1   
    17   12   13 1   
    18   12   14 1   
    19   19   20 1   
    20   19   28 1   
    21   20   21 1   
    22   20   23 1   
    23   20   29 1   
    24   21   22 2   
    25   21   41 1   
    26   23   24 1   
    27   23   30 1   
    28   23   31 1   
    29   24   25 1   
    30   24   32 1   
    31   24   33 1   
    32   25   26 1   
    33   25   34 1   
    34   25   35 1   
    35   26   27 1   
    36   26   36 1   
    37   26   37 1   
    38   27   38 1   
    39   27   39 1   
    40   27   40 1   
    41   41   42 1   
    42   41   49 1   
    43   42   43 1   
    44   42   45 1   
    45   42   50 1   
    46   43   44 2   
    47   43   53 1   
    48   45   46 1   
    49   45   51 1   
    50   45   52 1   
    51   46   47 1   
    52   46   48 1   
    53   53   54 1   
    54   53   57 1   
    55   54   55 1   
    56   54   58 1   
    57   54   59 1   
    58   55   56 2   
    59   55   60 1   
    60   60   61 1   
    61   60   68 1   
    62   61   62 1   
    63   61   64 1   
    64   61   69 1   
    65   62   63 2   
    66   62   72 1   
    67   64   65 1   
    68   64   70 1   
    69   64   71 1   
    70   65   66 1   
    71   65   67 1   
    72   72   73 1   
    73   72   76 1   
    74   73   74 1   
    75   73   77 1   
    76   73   78 1   
    77   74   75 2   
    78   74   79 1   
    79   79   80 1   
    80   79   86 1   
    81   80   81 1   
    82   80   83 1   
    83   80   87 1   
    84   81   82 2   
    85   81   93 1   
    86   83   84 1   
    87   83   85 1   
    88   83   88 1   
    89   84   90 1   
    90   84   91 1   
    91   84   92 1   
    92   85   89 1   
    93   93   94 1   
    94   93  101 1   
    95   94   95 1   
    96   94   97 1   
    97   94  102 1   
    98   95   96 2   
    99   95  112 1   
   100   97   98 1   
   101   97   99 1   
   102   97  103 1   
   103   98  100 1   
   104   98  104 1   
   105   98  105 1   
   106   99  106 1   
   107   99  107 1   
   108   99  108 1   
   109  100  109 1   
   110  100  110 1   
   111  100  111 1   
   112  112  113 1   
   113  112  119 1   
   114  113  114 1   
   115  113  116 1   
   116  113  120 1   
   117  114  115 2   
   118  114  126 1   
   119  116  117 1   
   120  116  118 1   
   121  116  121 1   
   122  117  123 1   
   123  117  124 1   
   124  117  125 1   
   125  118  122 1   
   126  126  127 1   
   127  126  133 1   
   128  127  128 1   
   129  127  130 1   
   130  127  134 1   
   131  128  129 2   
   132  128  140 1   
   133  130  131 1   
   134  130  132 1   
   135  130  135 1   
   136  131  137 1   
   137  131  138 1   
   138  131  139 1   
   139  132  136 1   
   140  140  141 1   
   141  140  149 1   
   142  141  142 1   
   143  141  144 1   
   144  141  150 1   
   145  142  143 2   
   146  142  162 1   
   147  144  145 1   
   148  144  151 1   
   149  144  152 1   
   150  145  146 1   
   151  145  153 1   
   152  145  154 1   
   153  146  147 1   
   154  146  155 1   
   155  146  156 1   
   156  147  148 1   
   157  147  157 1   
   158  147  158 1   
   159  148  159 1   
   160  148  160 1   
   161  148  161 1   
   162  162  163 1   
   163  162  171 1   
   164  163  164 1   
   165  163  166 1   
   166  163  172 1   
   167  164  165 2   
   168  164  177 1   
   169  166  167 1   
   170  166  173 1   
   171  166  174 1   
   172  167  168 1   
   173  167  175 1   
   174  167  176 1   
   175  168  169 1   
   176  168  170 1   
   177  177  178 1   
   178  177  182 1   
   179  178  179 1   
   180  178  180 1   
   181  178  181 1   
   182  184  185 1   
   183  184  186 1   
   184  187  188 1   
   185  187  189 1   
@<TRIPOS>SUBSTRUCTURE
     1 MOL         1 TEMP              0 ****  ****    0 ROOT
