@<TRIPOS>MOLECULE
MOL
  175   173     1     0     0
SMALL
resp


@<TRIPOS>ATOM
      1 C1          0.4080    4.0660    5.5170 c3        1 MOL     -0.409534
      2 C2         -0.0980    4.1840    4.0550 c         1 MOL      0.758288
      3 O1          0.6490    4.3230    3.1210 o         1 MOL     -0.568891
      4 H1         -0.2410    4.6460    6.1740 hc        1 MOL      0.100954
      5 H2          0.3940    3.0200    5.8240 hc        1 MOL      0.100954
      6 H3          1.4260    4.4510    5.5820 hc        1 MOL      0.100954
      7 N1         -1.4190    3.9800    3.8690 n         1 MOL     -0.755039
      8 C3         -2.0650    3.6420    2.5930 c3        1 MOL      0.328797
      9 C4         -2.1230    4.8220    1.6210 c         1 MOL      0.535404
     10 O2         -2.4480    5.9780    1.8750 o         1 MOL     -0.587742
     11 C5         -3.4860    3.1910    2.8590 c3        1 MOL     -0.489891
     12 C6         -4.2880    2.6200    1.6990 c         1 MOL      0.778715
     13 O3         -3.7060    2.2020    0.7010 o         1 MOL     -0.677737
     14 O4         -5.5650    2.6910    1.8020 o         1 MOL     -0.677737
     15 H4         -1.9390    3.8180    4.7170 hn        1 MOL      0.345274
     16 H5         -1.4540    2.8910    2.1050 h1        1 MOL      0.072846
     17 H6         -4.0930    4.0470    3.1880 hc        1 MOL      0.098107
     18 H7         -3.3920    2.4170    3.6280 hc        1 MOL      0.098107
     19 N2         -1.9830    4.4550    0.3400 n         1 MOL     -0.321299
     20 C7         -1.9710    5.3030   -0.8110 c3        1 MOL      0.200976
     21 C8         -2.9090    4.8010   -1.9990 c         1 MOL      0.421134
     22 O5         -2.7670    5.2910   -3.1080 o         1 MOL     -0.540065
     23 C9         -0.4990    5.4230   -1.2880 c3        1 MOL     -0.242506
     24 H8         -1.8880    3.4750    0.1330 hn        1 MOL      0.316604
     25 H9         -2.3740    6.2900   -0.5960 h1        1 MOL      0.024235
     26 H10         0.1700    5.2390   -0.4420 hc        1 MOL      0.058422
     27 H11        -0.3860    4.5900   -1.9850 hc        1 MOL      0.058422
     28 H12        -0.3760    6.2810   -1.9500 hc        1 MOL      0.058422
     29 N3         -3.8010    3.7990   -1.8480 n         1 MOL     -0.318211
     30 C10        -4.5800    3.1410   -2.8910 c3        1 MOL      0.218658
     31 C11        -5.9870    2.5640   -2.5000 c         1 MOL      0.289851
     32 O6         -6.9750    2.5100   -3.2550 o         1 MOL     -0.524389
     33 C12        -3.7680    2.0870   -3.7090 c3        1 MOL     -0.188419
     34 C13        -3.1690    1.1080   -2.7520 c         1 MOL      0.661401
     35 O7         -1.9700    0.8350   -2.8460 o         1 MOL     -0.677221
     36 O8         -3.8230    0.5710   -1.8340 o         1 MOL     -0.677221
     37 H13        -3.9280    3.5070   -0.8880 hn        1 MOL      0.096104
     38 H14        -4.8070    3.9440   -3.5800 h1        1 MOL      0.023599
     39 H15        -3.0330    2.6950   -4.2440 hc        1 MOL      0.052722
     40 H16        -4.4500    1.6730   -4.4510 hc        1 MOL      0.052722
     41 N4         -6.0940    2.0970   -1.2260 n         1 MOL     -0.147050
     42 C14        -7.2700    1.4240   -0.6440 c3        1 MOL     -0.229431
     43 C15        -7.5180    0.0020   -0.9400 c         1 MOL      0.526303
     44 O9         -8.5370   -0.6410   -0.5880 o         1 MOL     -0.620036
     45 H17        -5.2820    2.1450   -0.6270 hn        1 MOL      0.201665
     46 H18        -8.2240    1.9110   -0.8260 h1        1 MOL      0.111082
     47 H19        -7.1090    1.4330    0.4400 h1        1 MOL      0.111082
     48 N5         -6.5560   -0.6230   -1.6110 n         1 MOL     -0.283694
     49 C16        -6.4980   -2.1060   -1.9120 c3        1 MOL     -0.128973
     50 C17        -6.4710   -3.0790   -0.7150 c         1 MOL      0.454838
     51 O10        -6.5490   -4.3010   -0.8560 o         1 MOL     -0.546290
     52 C18        -5.2790   -2.3320   -2.8690 c3        1 MOL     -0.157841
     53 C19        -3.8630   -2.2490   -2.2430 c         1 MOL      0.436002
     54 N6         -2.7710   -2.3420   -2.9930 n         1 MOL     -0.550970
     55 O11        -3.6180   -2.1610   -1.0670 o         1 MOL     -0.255639
     56 H20        -5.7270   -0.0540   -1.7000 hn        1 MOL      0.258427
     57 H21        -7.4510   -2.3260   -2.4020 h1        1 MOL      0.138459
     58 H22        -5.3380   -1.5970   -3.6760 hc        1 MOL      0.066244
     59 H23        -5.4490   -3.2980   -3.3370 hc        1 MOL      0.066244
     60 H24        -2.8860   -2.6830   -3.9340 hn        1 MOL      0.288280
     61 H25        -1.8490   -2.3270   -2.5920 hn        1 MOL      0.288280
     62 N7         -6.3610   -2.6010    0.4610 n         1 MOL     -0.141824
     63 C20        -6.2900   -3.4700    1.6840 c3        1 MOL     -0.212442
     64 C21        -5.0790   -4.3810    1.7900 c         1 MOL      0.589002
     65 O12        -5.1660   -5.4830    2.3000 o         1 MOL     -0.584469
     66 H26        -6.0890   -1.6240    0.5550 hn        1 MOL      0.211697
     67 H27        -7.2270   -4.0190    1.7790 h1        1 MOL      0.084791
     68 H28        -6.3080   -2.7270    2.4860 h1        1 MOL      0.084791
     69 N8         -3.9000   -3.9820    1.2810 n         1 MOL     -0.146008
     70 C22        -2.5460   -4.5820    1.5450 c3        1 MOL     -0.311116
     71 C23        -1.4610   -3.4260    1.6570 c         1 MOL      0.629362
     72 O13        -1.7200   -2.3750    1.2060 o         1 MOL     -0.501165
     73 C24        -2.0960   -5.4080    0.3350 c3        1 MOL      0.566919
     74 C25        -2.5630   -6.8310    0.0820 c3        1 MOL     -0.519779
     75 O14        -2.2710   -4.7720   -0.9080 oh        1 MOL     -0.579717
     76 H29        -3.8490   -3.0460    0.8840 hn        1 MOL      0.034205
     77 H30        -2.5250   -5.2410    2.4180 h1        1 MOL      0.107258
     78 H31        -1.0540   -5.5790    0.6080 h1        1 MOL     -0.033765
     79 H32        -2.1680   -3.8320   -0.7230 ho        1 MOL      0.249892
     80 H33        -2.0500   -7.5780    0.6900 hc        1 MOL      0.128267
     81 H34        -3.6420   -6.9340    0.0050 hc        1 MOL      0.128267
     82 H35        -2.2380   -7.1530   -0.9070 hc        1 MOL      0.128267
     83 N9         -0.2980   -3.7960    2.1740 n         1 MOL     -0.597924
     84 C26         0.9710   -2.9670    1.9460 c3        1 MOL      0.282556
     85 C27         1.7010   -3.3230    0.6590 c         1 MOL      0.351361
     86 O15         1.8650   -4.5190    0.3750 o         1 MOL     -0.562183
     87 C28         1.9050   -2.9560    3.1770 c3        1 MOL     -0.076611
     88 C29         1.2480   -2.0420    4.2640 c3        1 MOL      0.251315
     89 C30         3.3200   -2.4060    2.8750 c3        1 MOL     -0.105388
     90 C31         1.8980   -2.2730    5.6420 c3        1 MOL     -0.297044
     91 H36        -0.2120   -4.7520    2.4650 hn        1 MOL      0.309971
     92 H37         0.6690   -1.9370    1.7610 h1        1 MOL     -0.015863
     93 H38         1.9410   -3.9460    3.6290 hc        1 MOL      0.017811
     94 H39         0.1640   -2.1450    4.2550 hc        1 MOL     -0.063625
     95 H40         1.4580   -1.0070    3.9690 hc        1 MOL     -0.063625
     96 H41         3.7840   -3.0000    2.0870 hc        1 MOL      0.029472
     97 H42         3.2980   -1.3590    2.5720 hc        1 MOL      0.029472
     98 H43         3.9450   -2.5020    3.7590 hc        1 MOL      0.029472
     99 H44         1.6520   -1.4170    6.2660 hc        1 MOL      0.061670
    100 H45         1.4700   -3.2130    5.9890 hc        1 MOL      0.061670
    101 H46         2.9810   -2.3280    5.5820 hc        1 MOL      0.061670
    102 N10         1.9610   -2.2380   -0.0260 n         1 MOL     -0.060551
    103 C32         2.7890   -2.0550   -1.2270 c3        1 MOL      0.116538
    104 C33         4.2090   -1.5730   -0.9550 c         1 MOL      0.469110
    105 O16         4.4970   -1.2270    0.1870 o         1 MOL     -0.425186
    106 C34         2.0070   -1.1570   -2.1940 c3        1 MOL     -0.305166
    107 C35         0.5710   -1.7130   -2.4860 c         1 MOL      0.683409
    108 O17        -0.3440   -1.5230   -1.6010 o         1 MOL     -0.633691
    109 O18         0.3140   -2.2980   -3.5390 o         1 MOL     -0.633691
    110 H47         1.5490   -1.3860    0.3080 hn        1 MOL      0.049491
    111 H48         2.9860   -2.9990   -1.7310 h1        1 MOL      0.037149
    112 H49         2.6010   -1.2730   -3.1020 hc        1 MOL      0.080163
    113 H50         1.9870   -0.1160   -1.8420 hc        1 MOL      0.080163
    114 N11         5.1520   -1.4950   -1.9340 n         1 MOL     -0.619834
    115 C36         6.5500   -1.0970   -1.6320 c3        1 MOL      0.268676
    116 C37         6.7460    0.4110   -1.3310 c         1 MOL      0.383222
    117 O19         7.4420    0.6570   -0.3350 o         1 MOL     -0.500019
    118 C38         7.5250   -1.6040   -2.6690 c3        1 MOL     -0.162090
    119 C39         8.9290   -1.9560   -2.1480 ca        1 MOL      0.102419
    120 C40         9.1860   -3.2150   -1.6330 ca        1 MOL     -0.193846
    121 C41         9.8300   -0.9270   -2.0470 ca        1 MOL     -0.193846
    122 C42        10.4070   -3.4410   -1.0200 ca        1 MOL     -0.078581
    123 C43        10.9950   -1.1180   -1.2500 ca        1 MOL     -0.078581
    124 C44        11.2800   -2.4010   -0.7680 ca        1 MOL     -0.123907
    125 H51         4.9700   -2.0070   -2.7920 hn        1 MOL      0.348910
    126 H52         7.0040   -1.5800   -0.7700 h1        1 MOL      0.080755
    127 H53         7.6800   -0.8770   -3.4700 hc        1 MOL      0.037835
    128 H54         7.0370   -2.4410   -3.1640 hc        1 MOL      0.037835
    129 H55         8.3950   -3.9440   -1.7130 ha        1 MOL      0.130055
    130 H56         9.5590    0.0380   -2.4460 ha        1 MOL      0.130055
    131 H57        10.5190   -4.4120   -0.5570 ha        1 MOL      0.102661
    132 H58        11.7250   -0.3350   -1.1370 ha        1 MOL      0.102661
    133 H59        12.1930   -2.5950   -0.2140 ha        1 MOL      0.098590
    134 N12         6.0620    1.3860   -1.9840 n         1 MOL     -0.064968
    135 C45         6.2100    2.7720   -1.5580 c3        1 MOL      0.007661
    136 C46         5.5870    3.1160   -0.2140 c         1 MOL      0.342648
    137 O20         6.0150    4.0580    0.4660 o         1 MOL     -0.511755
    138 C47         5.7580    3.6500   -2.7380 c3        1 MOL     -0.137805
    139 C48         4.7460    2.7310   -3.3850 c3        1 MOL     -0.006776
    140 C49         5.3550    1.3740   -3.2120 c3        1 MOL      0.051708
    141 H60         7.2630    3.0030   -1.4190 h1        1 MOL      0.056133
    142 H61         5.2810    4.5770   -2.4040 hc        1 MOL      0.065588
    143 H62         6.5610    3.9300   -3.4200 hc        1 MOL      0.065588
    144 H63         3.7970    2.7550   -2.8400 hc        1 MOL      0.034004
    145 H64         4.6400    2.9700   -4.4430 hc        1 MOL      0.034004
    146 H65         4.6290    0.5830   -3.4100 h1        1 MOL     -0.007270
    147 H66         6.1640    1.3090   -3.9420 h1        1 MOL     -0.007270
    148 N13         4.6580    2.2660    0.2320 n         1 MOL     -0.058618
    149 C50         4.0760    2.3430    1.5660 c3        1 MOL     -0.186521
    150 C51         4.8540    1.6120    2.7090 c         1 MOL      0.497431
    151 O21         4.7810    2.0740    3.7990 o         1 MOL     -0.545863
    152 C52         2.6740    1.6530    1.5120 c3        1 MOL     -0.190721
    153 C53         1.6700    2.2660    0.5660 c3        1 MOL      0.104764
    154 C54         0.3410    1.4990    0.5350 c         1 MOL      0.575398
    155 O22        -0.4870    1.7380   -0.3530 o         1 MOL     -0.734762
    156 O23         0.0940    0.6000    1.3540 o         1 MOL     -0.734762
    157 H67         4.5790    1.3840   -0.2470 hn        1 MOL      0.133724
    158 H68         4.0460    3.3980    1.8230 h1        1 MOL      0.137433
    159 H69         2.2590    1.7240    2.5230 hc        1 MOL      0.132277
    160 H70         2.7790    0.6490    1.0960 hc        1 MOL      0.132277
    161 H71         2.0540    2.5090   -0.4250 hc        1 MOL     -0.006339
    162 H72         1.3270    3.2190    0.9830 hc        1 MOL     -0.006339
    163 N14         5.5570    0.5460    2.3540 n         1 MOL     -0.053872
    164 C55         6.5290   -0.1650    3.1490 c3        1 MOL     -0.158444
    165 H73         6.2950   -0.0400    4.2060 h1        1 MOL      0.065594
    166 H74         6.5020   -1.2250    2.8940 h1        1 MOL      0.065594
    167 H75         7.5240    0.2330    2.9480 h1        1 MOL      0.065594
    168 H76         5.3720    0.1750    1.4300 hn        1 MOL      0.037385
    169 Ca1        -2.1070   -0.1540   -0.1100 Ca        1 MOL      1.642738
    170 O24        -2.2650    0.0430    2.5890 oh        1 MOL     -0.756840
    171 H77        -2.6690    0.0740    3.4520 ho        1 MOL      0.377038
    172 H78        -1.3520    0.2550    2.7540 ho        1 MOL      0.377038
    173 O25        -4.8640   -0.3780    1.0510 oh        1 MOL     -0.756840
    174 H79        -4.7710    0.5670    0.9570 ho        1 MOL      0.377038
    175 H80        -5.1410   -0.4970    1.9570 ho        1 MOL      0.377038
@<TRIPOS>BOND
     1    1    2 1   
     2    1    4 1   
     3    1    5 1   
     4    1    6 1   
     5    2    3 2   
     6    2    7 1   
     7    7    8 1   
     8    7   15 1   
     9    8    9 1   
    10    8   11 1   
    11    8   16 1   
    12    9   10 2   
    13    9   19 1   
    14   11   12 1   
    15   11   17 1   
    16   11   18 1   
    17   12   13 1   
    18   12   14 1   
    19   19   20 1   
    20   19   24 1   
    21   20   21 1   
    22   20   23 1   
    23   20   25 1   
    24   21   22 2   
    25   21   29 1   
    26   23   26 1   
    27   23   27 1   
    28   23   28 1   
    29   29   30 1   
    30   29   37 1   
    31   30   31 1   
    32   30   33 1   
    33   30   38 1   
    34   31   32 2   
    35   31   41 1   
    36   33   34 1   
    37   33   39 1   
    38   33   40 1   
    39   34   35 1   
    40   34   36 1   
    41   41   42 1   
    42   41   45 1   
    43   42   43 1   
    44   42   46 1   
    45   42   47 1   
    46   43   44 2   
    47   43   48 1   
    48   48   49 1   
    49   48   56 1   
    50   49   50 1   
    51   49   52 1   
    52   49   57 1   
    53   50   51 2   
    54   50   62 1   
    55   52   53 1   
    56   52   58 1   
    57   52   59 1   
    58   53   54 1   
    59   53   55 2   
    60   54   60 1   
    61   54   61 1   
    62   62   63 1   
    63   62   66 1   
    64   63   64 1   
    65   63   67 1   
    66   63   68 1   
    67   64   65 2   
    68   64   69 1   
    69   69   70 1   
    70   69   76 1   
    71   70   71 1   
    72   70   73 1   
    73   70   77 1   
    74   71   72 2   
    75   71   83 1   
    76   73   74 1   
    77   73   75 1   
    78   73   78 1   
    79   74   80 1   
    80   74   81 1   
    81   74   82 1   
    82   75   79 1   
    83   83   84 1   
    84   83   91 1   
    85   84   85 1   
    86   84   87 1   
    87   84   92 1   
    88   85   86 2   
    89   85  102 1   
    90   87   88 1   
    91   87   89 1   
    92   87   93 1   
    93   88   90 1   
    94   88   94 1   
    95   88   95 1   
    96   89   96 1   
    97   89   97 1   
    98   89   98 1   
    99   90   99 1   
   100   90  100 1   
   101   90  101 1   
   102  102  103 1   
   103  102  110 1   
   104  103  104 1   
   105  103  106 1   
   106  103  111 1   
   107  104  105 2   
   108  104  114 1   
   109  106  107 1   
   110  106  112 1   
   111  106  113 1   
   112  107  108 1   
   113  107  109 1   
   114  114  115 1   
   115  114  125 1   
   116  115  116 1   
   117  115  118 1   
   118  115  126 1   
   119  116  117 2   
   120  116  134 1   
   121  118  119 1   
   122  118  127 1   
   123  118  128 1   
   124  119  120 ar  
   125  119  121 ar  
   126  120  122 ar  
   127  120  129 1   
   128  121  123 ar  
   129  121  130 1   
   130  122  124 ar  
   131  122  131 1   
   132  123  124 ar  
   133  123  132 1   
   134  124  133 1   
   135  134  135 1   
   136  134  140 1   
   137  135  136 1   
   138  135  138 1   
   139  135  141 1   
   140  136  137 2   
   141  136  148 1   
   142  138  139 1   
   143  138  142 1   
   144  138  143 1   
   145  139  140 1   
   146  139  144 1   
   147  139  145 1   
   148  140  146 1   
   149  140  147 1   
   150  148  149 1   
   151  148  157 1   
   152  149  150 1   
   153  149  152 1   
   154  149  158 1   
   155  150  151 2   
   156  150  163 1   
   157  152  153 1   
   158  152  159 1   
   159  152  160 1   
   160  153  154 1   
   161  153  161 1   
   162  153  162 1   
   163  154  155 1   
   164  154  156 1   
   165  163  164 1   
   166  163  168 1   
   167  164  165 1   
   168  164  166 1   
   169  164  167 1   
   170  170  171 1   
   171  170  172 1   
   172  173  174 1   
   173  173  175 1   
@<TRIPOS>SUBSTRUCTURE
     1 MOL         1 TEMP              0 ****  ****    0 ROOT
