@<TRIPOS>MOLECULE
MOL
  179   176     1     0     0
SMALL
resp


@<TRIPOS>ATOM
      1 C1         -1.2850   -4.0840    6.7130 c3        1 MOL     -0.380751
      2 C2         -1.4930   -3.4880    5.3500 c         1 MOL      0.728892
      3 O1         -2.6260   -3.3190    4.8970 o         1 MOL     -0.579319
      4 H1         -2.0030   -4.8880    6.8700 hc        1 MOL      0.096546
      5 H2         -0.2730   -4.4820    6.7860 hc        1 MOL      0.096546
      6 H3         -1.4280   -3.3150    7.4720 hc        1 MOL      0.096546
      7 N1         -0.3850   -3.2650    4.6600 n         1 MOL     -0.625667
      8 C3         -0.2930   -2.8660    3.2750 c3        1 MOL      0.254801
      9 C4         -0.3910   -4.0710    2.3240 c         1 MOL      0.550019
     10 O2          0.1040   -5.2100    2.4880 o         1 MOL     -0.560101
     11 C5          1.0280   -2.0930    3.0990 c3        1 MOL     -0.188257
     12 C6          1.0750   -1.5940    1.6090 c         1 MOL      0.835420
     13 O3          0.1320   -0.9550    1.1080 o         1 MOL     -0.798152
     14 O4          1.9290   -2.0120    0.8690 o         1 MOL     -0.798152
     15 H4          0.5100   -3.5160    5.0380 hn        1 MOL      0.311711
     16 H5         -1.1520   -2.2440    3.0040 h1        1 MOL      0.038119
     17 H6          1.8850   -2.7520    3.2510 hc        1 MOL      0.033062
     18 H7          1.0510   -1.1620    3.6720 hc        1 MOL      0.033062
     19 N2         -1.0550   -3.7770    1.2210 n         1 MOL     -0.440307
     20 C7         -1.5250   -4.8690    0.3040 c3        1 MOL     -0.029783
     21 C8         -0.4750   -5.6400   -0.5190 c         1 MOL      0.495895
     22 O5         -0.7860   -6.6280   -1.1430 o         1 MOL     -0.553959
     23 C9         -2.5590   -4.2120   -0.6420 c3        1 MOL      0.204387
     24 C10        -3.6340   -5.2210   -1.1110 c3        1 MOL     -0.403572
     25 C11        -4.4700   -4.5540   -2.2300 c3        1 MOL      0.315794
     26 C12        -5.5230   -5.5890   -2.8400 c3        1 MOL     -0.125539
     27 N3         -6.2210   -4.9940   -3.9760 n4        1 MOL     -0.415847
     28 H8         -1.3020   -2.8250    0.9730 hn        1 MOL      0.228231
     29 H9         -2.0680   -5.5830    0.9130 h1        1 MOL      0.110453
     30 H10        -2.0570   -3.7470   -1.4950 hc        1 MOL      0.043868
     31 H11        -3.0130   -3.4420   -0.0240 hc        1 MOL      0.043868
     32 H12        -4.2360   -5.4910   -0.2430 hc        1 MOL      0.087373
     33 H13        -3.1350   -6.0830   -1.5590 hc        1 MOL      0.087373
     34 H14        -3.8150   -4.1110   -2.9910 hc        1 MOL     -0.025825
     35 H15        -5.0070   -3.7150   -1.7940 hc        1 MOL     -0.025825
     36 H16        -6.1950   -5.8250   -2.0170 hx        1 MOL      0.123368
     37 H17        -4.9200   -6.4020   -3.2330 hx        1 MOL      0.123368
     38 H18        -5.6450   -4.8440   -4.7880 hn        1 MOL      0.345897
     39 H19        -6.9060   -5.6680   -4.3100 hn        1 MOL      0.345897
     40 H20        -6.7870   -4.2020   -3.6980 hn        1 MOL      0.345897
     41 N4          0.8000   -5.2360   -0.4670 n         1 MOL     -0.207863
     42 C13         1.9480   -5.7130   -1.2930 c3        1 MOL      0.153118
     43 C14         3.1940   -5.4910   -0.4700 c         1 MOL      0.345650
     44 O6          4.0980   -6.3390   -0.5920 o         1 MOL     -0.526234
     45 C15         2.0920   -5.0530   -2.7420 c3        1 MOL     -0.216396
     46 C16         1.8460   -3.5170   -2.7450 c         1 MOL      0.650849
     47 O7          1.1160   -2.9950   -3.6320 o         1 MOL     -0.692993
     48 O8          2.2350   -2.7880   -1.7810 o         1 MOL     -0.692993
     49 H21         0.9860   -4.5390    0.2390 hn        1 MOL      0.025503
     50 H22         1.8410   -6.7790   -1.4780 h1        1 MOL      0.065372
     51 H23         1.3850   -5.5770   -3.3700 hc        1 MOL      0.064080
     52 H24         3.1390   -5.1950   -3.0260 hc        1 MOL      0.064080
     53 N5          3.2060   -4.4820    0.4760 n         1 MOL     -0.073728
     54 C17         4.3670   -4.2760    1.4270 c3        1 MOL     -0.439483
     55 C18         5.3570   -3.2640    0.8860 c         1 MOL      0.774432
     56 O9          6.3930   -3.0010    1.5050 o         1 MOL     -0.591796
     57 H25         2.4910   -3.7840    0.5240 hn        1 MOL      0.229412
     58 H26         4.8560   -5.2390    1.5020 h1        1 MOL      0.176940
     59 H27         3.8100   -3.9370    2.2980 h1        1 MOL      0.176940
     60 N6          5.1120   -2.7090   -0.3290 n         1 MOL     -0.633554
     61 C19         6.0980   -1.9600   -1.1640 c3        1 MOL      0.057395
     62 C20         6.6280   -0.6140   -0.5300 c         1 MOL      0.361828
     63 O10         7.1610    0.2590   -1.2270 o         1 MOL     -0.539391
     64 C21         5.4870   -1.7820   -2.5820 c3        1 MOL     -0.221203
     65 C22         4.5040   -0.6250   -2.7100 c         1 MOL      0.687817
     66 N7          4.3490    0.0030   -3.8400 n         1 MOL     -0.798141
     67 O11         3.9920   -0.1630   -1.7120 o         1 MOL     -0.537649
     68 H28         4.3280   -2.9670   -0.9080 hn        1 MOL      0.389560
     69 H29         7.0100   -2.5260   -1.3640 h1        1 MOL      0.116925
     70 H30         4.8530   -2.6530   -2.7690 hc        1 MOL      0.083051
     71 H31         6.1520   -1.8160   -3.4370 hc        1 MOL      0.083051
     72 H32         4.9260   -0.2130   -4.6430 hn        1 MOL      0.370622
     73 H33         3.7250    0.7940   -3.8530 hn        1 MOL      0.370622
     74 N8          6.3940   -0.3870    0.7070 n         1 MOL     -0.107764
     75 C23         6.8390    0.7420    1.5400 c3        1 MOL     -0.194699
     76 C24         5.8820    1.9550    1.4750 c         1 MOL      0.518328
     77 O12         5.9790    2.9120    2.2190 o         1 MOL     -0.568472
     78 H34         6.0540   -1.2350    1.1440 hn        1 MOL      0.212780
     79 H35         7.8070    1.0380    1.1360 h1        1 MOL      0.124172
     80 H36         6.9850    0.4200    2.5650 h1        1 MOL      0.124172
     81 N9          4.8150    1.9610    0.6430 n         1 MOL     -0.288113
     82 C25         3.8110    3.0700    0.5730 c3        1 MOL      0.505162
     83 C26         2.3920    2.5170    0.7270 c         1 MOL      0.244299
     84 O13         2.1290    1.3740    0.4070 o         1 MOL     -0.585683
     85 C27         4.0690    3.8040   -0.7300 c3        1 MOL     -0.170759
     86 C28         5.1460    4.7910   -0.5790 ca        1 MOL     -0.012308
     87 C29         4.8320    6.0100   -0.0260 ca        1 MOL     -0.139106
     88 C30         6.4850    4.4820   -0.9570 ca        1 MOL     -0.139106
     89 C31         5.8260    7.0100    0.0830 ca        1 MOL     -0.259540
     90 C32         7.5100    5.4710   -0.8750 ca        1 MOL     -0.259540
     91 C33         7.1530    6.7590   -0.3830 ca        1 MOL      0.337970
     92 O14         8.0840    7.7170   -0.2860 oh        1 MOL     -0.494840
     93 H37         4.7400    1.1310    0.0750 hn        1 MOL      0.093811
     94 H38         3.8680    3.7240    1.4530 h1        1 MOL     -0.004734
     95 H39         3.1500    4.2960   -1.0680 hc        1 MOL      0.047918
     96 H40         4.4350    3.0930   -1.4790 hc        1 MOL      0.047918
     97 H41         3.8560    6.2780    0.3580 ha        1 MOL      0.137081
     98 H42         6.7040    3.5100   -1.3760 ha        1 MOL      0.137081
     99 H43         5.5400    7.9360    0.5620 ha        1 MOL      0.145534
    100 H44         8.4990    5.2770   -1.2600 ha        1 MOL      0.145534
    101 H45         8.9210    7.2440   -0.2660 ho        1 MOL      0.372055
    102 N10         1.4140    3.3270    1.1270 n         1 MOL     -0.333759
    103 C34        -0.0290    2.9940    1.2430 c3        1 MOL     -0.148980
    104 C35        -0.8880    4.0640    0.5010 c         1 MOL      0.505197
    105 O15        -0.7240    5.2720    0.8960 o         1 MOL     -0.553003
    106 C36        -0.5430    2.8310    2.7160 c3        1 MOL      0.141066
    107 C37         0.4920    2.1520    3.6270 c3        1 MOL     -0.019490
    108 C38        -1.8880    2.1600    2.6880 c3        1 MOL     -0.303455
    109 C39         0.0530    2.1870    5.1590 c3        1 MOL     -0.122756
    110 H46         1.6770    4.2560    1.4470 hn        1 MOL      0.248350
    111 H47        -0.1580    2.0650    0.6930 h1        1 MOL      0.190402
    112 H48        -0.8170    3.7790    3.1910 hc        1 MOL      0.014814
    113 H49         1.4870    2.5890    3.5420 hc        1 MOL      0.043294
    114 H50         0.5920    1.1300    3.2670 hc        1 MOL      0.043294
    115 H51        -2.6390    2.9600    2.6280 hc        1 MOL      0.080533
    116 H52        -1.9690    1.5340    1.8040 hc        1 MOL      0.080533
    117 H53        -1.9720    1.4470    3.5050 hc        1 MOL      0.080533
    118 H54        -1.0010    1.9840    5.3140 hc        1 MOL      0.030397
    119 H55         0.7580    1.5700    5.7230 hc        1 MOL      0.030397
    120 H56         0.2430    3.1910    5.5320 hc        1 MOL      0.030397
    121 N11        -1.6270    3.7200   -0.5080 n         1 MOL     -0.329792
    122 C40        -2.7070    4.5500   -1.1090 c3        1 MOL     -0.066172
    123 C41        -4.0400    4.2710   -0.3900 c         1 MOL      0.521876
    124 O16        -4.2380    3.2700    0.2810 o         1 MOL     -0.394848
    125 C42        -2.8300    4.2730   -2.6290 c3        1 MOL      0.043618
    126 O17        -3.3870    3.0080   -2.9080 oh        1 MOL     -0.527683
    127 H57        -1.6560    2.7500   -0.8020 hn        1 MOL      0.281754
    128 H58        -2.4840    5.5940   -0.8970 h1        1 MOL      0.080490
    129 H59        -1.8900    4.3390   -3.1790 h1        1 MOL      0.064570
    130 H60        -3.4600    5.0340   -3.0950 h1        1 MOL      0.064570
    131 H61        -2.7090    2.3670   -3.1040 ho        1 MOL      0.390574
    132 N12        -4.9750    5.2190   -0.5000 n         1 MOL     -0.418194
    133 C43        -6.3100    5.0480    0.1690 c3        1 MOL      0.010600
    134 C44        -7.1300    3.7900   -0.1780 c         1 MOL      0.553182
    135 O18        -7.7720    3.1910    0.6400 o         1 MOL     -0.501778
    136 C45        -7.0610    6.3930    0.0390 c3        1 MOL     -0.312561
    137 H62        -4.7550    5.9680   -1.1450 hn        1 MOL      0.283123
    138 H63        -6.0560    4.9600    1.2220 h1        1 MOL      0.121933
    139 H64        -7.4250    6.6790    1.0240 hc        1 MOL      0.103369
    140 H65        -6.3920    7.2130   -0.2280 hc        1 MOL      0.103369
    141 H66        -7.9530    6.3600   -0.5970 hc        1 MOL      0.103369
    142 N13        -6.9500    3.1800   -1.3860 n         1 MOL     -0.464563
    143 C46        -7.5830    1.9690   -1.7470 c3        1 MOL      0.163183
    144 C47        -7.0520    0.7700   -0.9340 c         1 MOL      0.294170
    145 O19        -7.8300   -0.1210   -0.5470 o         1 MOL     -0.522021
    146 C48        -7.4930    1.7970   -3.2610 c3        1 MOL     -0.298210
    147 H67        -6.4290    3.6500   -2.0980 hn        1 MOL      0.281462
    148 H68        -8.6200    2.0760   -1.4410 h1        1 MOL      0.088341
    149 H69        -7.8730    2.6920   -3.7450 hc        1 MOL      0.082152
    150 H70        -6.4590    1.6590   -3.5930 hc        1 MOL      0.082152
    151 H71        -8.1840    0.9870   -3.4900 hc        1 MOL      0.082152
    152 N14        -5.7900    0.7150   -0.4870 n         1 MOL      0.008677
    153 C49        -5.1690   -0.3000    0.2870 c3        1 MOL     -0.086979
    154 C50        -5.4280   -0.0760    1.8330 c         1 MOL      0.441098
    155 O20        -5.6790   -1.0620    2.5360 o         1 MOL     -0.537092
    156 C51        -3.7130   -0.3310   -0.0910 c3        1 MOL     -0.205750
    157 C52        -3.3340   -0.3920   -1.5930 c3        1 MOL      0.253129
    158 C53        -1.8520   -0.4030   -1.7310 c         1 MOL      0.497347
    159 O21        -1.2140    0.6310   -1.5630 o         1 MOL     -0.660297
    160 O22        -1.2620   -1.4940   -1.9230 o         1 MOL     -0.660297
    161 H72        -5.1840    1.4930   -0.7230 hn        1 MOL      0.078786
    162 H73        -5.6170   -1.2780    0.0820 h1        1 MOL      0.085505
    163 H74        -3.2120   -1.1830    0.3720 hc        1 MOL      0.065261
    164 H75        -3.2310    0.5480    0.3160 hc        1 MOL      0.065261
    165 H76        -3.7540    0.4570   -2.1380 hc        1 MOL     -0.103154
    166 H77        -3.8110   -1.2210   -2.1200 hc        1 MOL     -0.103154
    167 N15        -5.5710    1.1240    2.3220 n         1 MOL     -0.082482
    168 C54        -6.2120    1.4560    3.6230 c3        1 MOL     -0.108266
    169 H78        -6.9330    0.6800    3.8820 h1        1 MOL      0.068974
    170 H79        -5.4490    1.5150    4.4000 h1        1 MOL      0.068974
    171 H80        -6.7240    2.4150    3.5430 h1        1 MOL      0.068974
    172 H81        -5.1310    1.8920    1.8400 hn        1 MOL      0.095992
    173 Ca1         1.1350   -0.5010   -1.2030 Ca        1 MOL      1.762663
    174 O23         1.2320    2.0500   -2.5460 oh        1 MOL     -0.828151
    175 H82         0.6110    2.7250   -2.7990 ho        1 MOL      0.392717
    176 H83         2.0690    2.3370   -2.9080 ho        1 MOL      0.392717
    177 O24         1.2340   -0.3650   -3.9990 oh        1 MOL     -0.828151
    178 H84         1.0190   -1.2860   -4.1050 ho        1 MOL      0.392717
    179 H85         0.9880    0.0420   -4.8280 ho        1 MOL      0.392717
@<TRIPOS>BOND
     1    1    2 1   
     2    1    4 1   
     3    1    5 1   
     4    1    6 1   
     5    2    3 2   
     6    2    7 1   
     7    7    8 1   
     8    7   15 1   
     9    8    9 1   
    10    8   11 1   
    11    8   16 1   
    12    9   10 2   
    13    9   19 1   
    14   11   12 1   
    15   11   17 1   
    16   11   18 1   
    17   12   13 1   
    18   12   14 1   
    19   19   20 1   
    20   19   28 1   
    21   20   21 1   
    22   20   23 1   
    23   20   29 1   
    24   21   22 2   
    25   21   41 1   
    26   23   24 1   
    27   23   30 1   
    28   23   31 1   
    29   24   25 1   
    30   24   32 1   
    31   24   33 1   
    32   25   26 1   
    33   25   34 1   
    34   25   35 1   
    35   26   27 1   
    36   26   36 1   
    37   26   37 1   
    38   27   38 1   
    39   27   39 1   
    40   27   40 1   
    41   41   42 1   
    42   41   49 1   
    43   42   43 1   
    44   42   45 1   
    45   42   50 1   
    46   43   44 2   
    47   43   53 1   
    48   45   46 1   
    49   45   51 1   
    50   45   52 1   
    51   46   47 1   
    52   46   48 1   
    53   53   54 1   
    54   53   57 1   
    55   54   55 1   
    56   54   58 1   
    57   54   59 1   
    58   55   56 2   
    59   55   60 1   
    60   60   61 1   
    61   60   68 1   
    62   61   62 1   
    63   61   64 1   
    64   61   69 1   
    65   62   63 2   
    66   62   74 1   
    67   64   65 1   
    68   64   70 1   
    69   64   71 1   
    70   65   66 1   
    71   65   67 2   
    72   66   72 1   
    73   66   73 1   
    74   74   75 1   
    75   74   78 1   
    76   75   76 1   
    77   75   79 1   
    78   75   80 1   
    79   76   77 2   
    80   76   81 1   
    81   81   82 1   
    82   81   93 1   
    83   82   83 1   
    84   82   85 1   
    85   82   94 1   
    86   83   84 2   
    87   83  102 1   
    88   85   86 1   
    89   85   95 1   
    90   85   96 1   
    91   86   87 ar  
    92   86   88 ar  
    93   87   89 ar  
    94   87   97 1   
    95   88   90 ar  
    96   88   98 1   
    97   89   91 ar  
    98   89   99 1   
    99   90   91 ar  
   100   90  100 1   
   101   91   92 1   
   102   92  101 1   
   103  102  103 1   
   104  102  110 1   
   105  103  104 1   
   106  103  106 1   
   107  103  111 1   
   108  104  105 2   
   109  104  121 1   
   110  106  107 1   
   111  106  108 1   
   112  106  112 1   
   113  107  109 1   
   114  107  113 1   
   115  107  114 1   
   116  108  115 1   
   117  108  116 1   
   118  108  117 1   
   119  109  118 1   
   120  109  119 1   
   121  109  120 1   
   122  121  122 1   
   123  121  127 1   
   124  122  123 1   
   125  122  125 1   
   126  122  128 1   
   127  123  124 2   
   128  123  132 1   
   129  125  126 1   
   130  125  129 1   
   131  125  130 1   
   132  126  131 1   
   133  132  133 1   
   134  132  137 1   
   135  133  134 1   
   136  133  136 1   
   137  133  138 1   
   138  134  135 2   
   139  134  142 1   
   140  136  139 1   
   141  136  140 1   
   142  136  141 1   
   143  142  143 1   
   144  142  147 1   
   145  143  144 1   
   146  143  146 1   
   147  143  148 1   
   148  144  145 2   
   149  144  152 1   
   150  146  149 1   
   151  146  150 1   
   152  146  151 1   
   153  152  153 1   
   154  152  161 1   
   155  153  154 1   
   156  153  156 1   
   157  153  162 1   
   158  154  155 2   
   159  154  167 1   
   160  156  157 1   
   161  156  163 1   
   162  156  164 1   
   163  157  158 1   
   164  157  165 1   
   165  157  166 1   
   166  158  159 1   
   167  158  160 1   
   168  167  168 1   
   169  167  172 1   
   170  168  169 1   
   171  168  170 1   
   172  168  171 1   
   173  174  175 1   
   174  174  176 1   
   175  177  178 1   
   176  177  179 1   
@<TRIPOS>SUBSTRUCTURE
     1 MOL         1 TEMP              0 ****  ****    0 ROOT
