@<TRIPOS>MOLECULE
MOL
  175   173     1     0     0
SMALL
resp


@<TRIPOS>ATOM
      1 C1          0.5430    4.0650    5.5840 c3        1 MOL     -0.431773
      2 C2         -0.2080    4.3110    4.2040 c         1 MOL      0.633247
      3 O1          0.4200    4.7490    3.2250 o         1 MOL     -0.503852
      4 H1          1.2060    4.9040    5.7910 hc        1 MOL      0.108584
      5 H2         -0.1900    3.9770    6.3860 hc        1 MOL      0.108584
      6 H3          1.1270    3.1460    5.5220 hc        1 MOL      0.108584
      7 N1         -1.4900    3.8670    4.0640 n         1 MOL     -0.571323
      8 C3         -2.1100    3.5470    2.7340 c3        1 MOL      0.064764
      9 C4         -2.2990    4.7610    1.8110 c         1 MOL      0.578139
     10 O2         -2.4230    5.8660    2.2390 o         1 MOL     -0.547923
     11 C5         -3.4900    2.9860    3.0350 c3        1 MOL     -0.274990
     12 C6         -4.1870    2.6410    1.6550 c         1 MOL      0.623920
     13 O3         -3.5960    1.8400    0.8060 o         1 MOL     -0.604282
     14 O4         -5.3370    3.0510    1.4440 o         1 MOL     -0.604282
     15 H4         -1.9910    3.7580    4.9350 hn        1 MOL      0.312631
     16 H5         -1.4740    2.7830    2.2790 h1        1 MOL      0.072859
     17 H6         -4.1200    3.7400    3.5160 hc        1 MOL      0.066605
     18 H7         -3.4990    2.1260    3.7090 hc        1 MOL      0.066605
     19 N2         -2.1790    4.5000    0.5230 n         1 MOL     -0.550654
     20 C7         -2.4550    5.5030   -0.5390 c3        1 MOL      0.446296
     21 C8         -3.3540    5.0610   -1.7470 c         1 MOL      0.338145
     22 O5         -3.5260    5.8920   -2.6480 o         1 MOL     -0.563437
     23 C9         -1.0610    5.9810   -1.0230 c3        1 MOL     -0.296677
     24 H8         -1.9570    3.5310    0.3330 hn        1 MOL      0.386048
     25 H9         -2.9000    6.3850   -0.0960 h1        1 MOL     -0.025565
     26 H10        -0.6340    5.0620   -1.4560 hc        1 MOL      0.067230
     27 H11        -1.0700    6.7970   -1.7370 hc        1 MOL      0.067230
     28 H12        -0.4960    6.3350   -0.1630 hc        1 MOL      0.067230
     29 N3         -3.9540    3.9130   -1.6930 n         1 MOL     -0.077229
     30 C10        -4.7780    3.3950   -2.8160 c3        1 MOL     -0.166074
     31 C11        -5.9400    2.4570   -2.5090 c         1 MOL      0.421096
     32 O6         -6.7270    2.0960   -3.3640 o         1 MOL     -0.550982
     33 C12        -3.8130    2.7430   -3.8510 c3        1 MOL      0.079054
     34 C13        -2.7960    1.7580   -3.3250 c         1 MOL      0.681665
     35 O7         -3.1670    0.8180   -2.5710 o         1 MOL     -0.691578
     36 O8         -1.6050    1.7900   -3.7530 o         1 MOL     -0.691578
     37 H13        -3.7430    3.3330   -0.8920 hn        1 MOL     -0.022842
     38 H14        -5.1910    4.1890   -3.4300 h1        1 MOL      0.120464
     39 H15        -3.2220    3.5270   -4.3350 hc        1 MOL     -0.015553
     40 H16        -4.2830    2.2250   -4.7020 hc        1 MOL     -0.015553
     41 N4         -6.1020    2.0650   -1.2530 n         1 MOL      0.004581
     42 C14        -7.2280    1.3380   -0.7480 c3        1 MOL     -0.368352
     43 C15        -7.3590   -0.1580   -1.1000 c         1 MOL      0.498389
     44 O9         -8.3990   -0.7900   -0.9890 o         1 MOL     -0.580576
     45 H17        -5.3420    2.2760   -0.6250 hn        1 MOL      0.057830
     46 H18        -8.1480    1.8320   -1.0720 h1        1 MOL      0.146538
     47 H19        -7.0660    1.3940    0.3250 h1        1 MOL      0.146538
     48 N5         -6.2660   -0.7530   -1.6150 n         1 MOL      0.023426
     49 C16        -6.2640   -2.1350   -2.1100 c3        1 MOL     -0.194960
     50 C17        -6.4350   -3.2880   -1.0680 c         1 MOL      0.532026
     51 O10        -6.6970   -4.4720   -1.4490 o         1 MOL     -0.549973
     52 C18        -5.0280   -2.3850   -2.9900 c3        1 MOL     -0.100715
     53 C19        -3.6640   -2.2690   -2.3440 c         1 MOL      0.518591
     54 N6         -2.6360   -2.4400   -3.1210 n         1 MOL     -0.665223
     55 O11        -3.5690   -2.0520   -1.1610 o         1 MOL     -0.422432
     56 H20        -5.3990   -0.2230   -1.6640 hn        1 MOL      0.019143
     57 H21        -7.1970   -2.1910   -2.6550 h1        1 MOL      0.124365
     58 H22        -5.0540   -1.7090   -3.8500 hc        1 MOL      0.059145
     59 H23        -5.0960   -3.4040   -3.3780 hc        1 MOL      0.059145
     60 H24        -2.7630   -2.7460   -4.0760 hn        1 MOL      0.347275
     61 H25        -1.7020   -2.2930   -2.7640 hn        1 MOL      0.347275
     62 N7         -6.2970   -3.0030    0.2230 n         1 MOL     -0.363998
     63 C20        -6.4600   -4.0350    1.2790 c3        1 MOL      0.002886
     64 C21        -5.1100   -4.5250    1.7120 c         1 MOL      0.435806
     65 O12        -5.0730   -5.4610    2.5310 o         1 MOL     -0.581222
     66 H26        -5.9420   -2.0860    0.4260 hn        1 MOL      0.221083
     67 H27        -6.9820   -4.9260    0.9270 h1        1 MOL      0.086443
     68 H28        -7.0890   -3.6990    2.1080 h1        1 MOL      0.086443
     69 N8         -3.9810   -3.9110    1.2660 n         1 MOL     -0.217363
     70 C22        -2.5970   -4.4630    1.4260 c3        1 MOL     -0.220757
     71 C23        -1.5460   -3.3590    1.5410 c         1 MOL      0.526191
     72 O13        -1.6240   -2.4170    0.8120 o         1 MOL     -0.389927
     73 C24        -2.2920   -5.4010    0.1980 c3        1 MOL      0.436773
     74 C25        -3.0150   -6.7680    0.4090 c3        1 MOL     -0.613490
     75 O14        -2.6810   -4.9040   -1.0120 oh        1 MOL     -0.511776
     76 H29        -4.0730   -3.0820    0.7100 hn        1 MOL      0.147825
     77 H30        -2.6390   -5.0400    2.3530 h1        1 MOL      0.113797
     78 H31        -1.2180   -5.5510    0.1790 h1        1 MOL     -0.017004
     79 H32        -2.1970   -4.0780   -1.1390 ho        1 MOL      0.297625
     80 H33        -2.9820   -7.3790   -0.4960 hc        1 MOL      0.167729
     81 H34        -2.7000   -7.3620    1.2750 hc        1 MOL      0.167729
     82 H35        -4.0810   -6.5820    0.4270 hc        1 MOL      0.167729
     83 N9         -0.4190   -3.6070    2.1610 n         1 MOL     -0.445229
     84 C26         0.7970   -2.7180    2.1910 c3        1 MOL     -0.032012
     85 C27         1.5760   -3.0730    0.9580 c         1 MOL      0.507954
     86 O15         1.9450   -4.2090    0.7090 o         1 MOL     -0.582173
     87 C28         1.6390   -2.7610    3.5010 c3        1 MOL      0.176344
     88 C29         0.6980   -2.4680    4.6780 c3        1 MOL      0.153811
     89 C30         2.8660   -1.6850    3.4710 c3        1 MOL     -0.227387
     90 C31         1.1800   -3.1380    5.9960 c3        1 MOL     -0.343473
     91 H36        -0.2820   -4.3750    2.8060 hn        1 MOL      0.264911
     92 H37         0.3600   -1.7210    2.1010 h1        1 MOL     -0.033123
     93 H38         2.0850   -3.7550    3.5920 hc        1 MOL     -0.002907
     94 H39        -0.3060   -2.8100    4.4220 hc        1 MOL     -0.017912
     95 H40         0.6230   -1.4030    4.8800 hc        1 MOL     -0.017912
     96 H41         3.3620   -1.9560    4.4050 hc        1 MOL      0.031067
     97 H42         3.5150   -1.7700    2.5920 hc        1 MOL      0.031067
     98 H43         2.5560   -0.6500    3.4100 hc        1 MOL      0.031067
     99 H44         2.1990   -2.8100    6.2260 hc        1 MOL      0.077244
    100 H45         0.5740   -2.8310    6.8470 hc        1 MOL      0.077244
    101 H46         1.2570   -4.2060    5.8160 hc        1 MOL      0.077244
    102 N10         1.9650   -1.9970    0.3090 n         1 MOL     -0.115438
    103 C32         2.7860   -2.0690   -0.9400 c3        1 MOL     -0.030787
    104 C33         4.1730   -1.5540   -0.7200 c         1 MOL      0.302995
    105 O16         4.4300   -0.9140    0.2320 o         1 MOL     -0.201334
    106 C34         2.1000   -1.2390   -2.0960 c3        1 MOL     -0.093160
    107 C35         0.6450   -1.6580   -2.3220 c         1 MOL      0.611793
    108 O17        -0.2650   -1.2400   -1.5860 o         1 MOL     -0.666257
    109 O18         0.4470   -2.2730   -3.4250 o         1 MOL     -0.666257
    110 H47         1.8500   -1.0890    0.7180 hn        1 MOL      0.124213
    111 H48         2.9680   -3.0710   -1.3340 h1        1 MOL      0.080481
    112 H49         2.6390   -1.5180   -3.0150 hc        1 MOL      0.046865
    113 H50         2.0710   -0.2000   -1.7970 hc        1 MOL      0.046865
    114 N11         5.1140   -1.8760   -1.6330 n         1 MOL     -0.536561
    115 C36         6.4580   -1.5030   -1.4430 c3        1 MOL      0.348692
    116 C37         6.7210    0.0260   -1.2070 c         1 MOL      0.413771
    117 O19         7.5440    0.2990   -0.2880 o         1 MOL     -0.524906
    118 C38         7.3670   -1.9670   -2.6190 c3        1 MOL     -0.369435
    119 C39         8.8530   -1.9450   -2.2060 ca        1 MOL      0.246903
    120 C40         9.2720   -2.7280   -1.0990 ca        1 MOL     -0.308757
    121 C41         9.7830   -1.1470   -2.9300 ca        1 MOL     -0.308757
    122 C42        10.6710   -2.7320   -0.6960 ca        1 MOL      0.037506
    123 C43        11.1340   -1.1250   -2.4330 ca        1 MOL      0.037506
    124 C44        11.5750   -1.9780   -1.4180 ca        1 MOL     -0.270250
    125 H51         4.9080   -2.4630   -2.4290 hn        1 MOL      0.321806
    126 H52         6.7520   -1.9490   -0.4900 h1        1 MOL      0.032660
    127 H53         7.1850   -1.3300   -3.4780 hc        1 MOL      0.103462
    128 H54         7.0920   -3.0100   -2.7840 hc        1 MOL      0.103462
    129 H55         8.5450   -3.3850   -0.6480 ha        1 MOL      0.154022
    130 H56         9.4920   -0.5920   -3.8030 ha        1 MOL      0.154022
    131 H57        11.0040   -3.4410    0.0520 ha        1 MOL      0.080810
    132 H58        11.7720   -0.4410   -2.9640 ha        1 MOL      0.080810
    133 H59        12.6090   -1.9860   -1.0960 ha        1 MOL      0.133216
    134 N12         6.0310    1.0060   -1.8840 n         1 MOL     -0.203838
    135 C45         6.2760    2.4330   -1.7210 c3        1 MOL      0.066375
    136 C46         5.6930    2.9610   -0.3810 c         1 MOL      0.318157
    137 O20         6.1220    4.0260    0.1170 o         1 MOL     -0.524042
    138 C47         5.7230    3.0760   -2.9730 c3        1 MOL     -0.205859
    139 C48         4.6120    2.1070   -3.2740 c3        1 MOL      0.097759
    140 C49         5.1270    0.7860   -2.9750 c3        1 MOL      0.121239
    141 H60         7.3560    2.5800   -1.7110 h1        1 MOL      0.068341
    142 H61         5.3890    4.0900   -2.7540 hc        1 MOL      0.071433
    143 H62         6.4130    2.9430   -3.8110 hc        1 MOL      0.071433
    144 H63         3.6740    2.3210   -2.7580 hc        1 MOL      0.007173
    145 H64         4.3200    2.1100   -4.3240 hc        1 MOL      0.007173
    146 H65         4.2310    0.2500   -2.6300 h1        1 MOL     -0.024750
    147 H66         5.6270    0.2550   -3.7930 h1        1 MOL     -0.024750
    148 N13         4.8470    2.1810    0.2070 n         1 MOL     -0.093179
    149 C50         4.2600    2.3530    1.5690 c3        1 MOL     -0.070698
    150 C51         5.1820    1.6390    2.5370 c         1 MOL      0.416676
    151 O21         5.3760    2.2580    3.5950 o         1 MOL     -0.558651
    152 C52         2.8180    1.7840    1.6050 c3        1 MOL     -0.049338
    153 C53         1.7870    2.4000    0.7340 c3        1 MOL     -0.035932
    154 C54         0.3840    1.7400    0.6020 c         1 MOL      0.719957
    155 O22        -0.4410    2.2250   -0.1340 o         1 MOL     -0.739753
    156 O23         0.0940    0.6740    1.1400 o         1 MOL     -0.739753
    157 H67         4.6240    1.3330   -0.2930 hn        1 MOL      0.165321
    158 H68         4.2930    3.3990    1.8820 h1        1 MOL      0.127571
    159 H69         2.3360    1.8350    2.5830 hc        1 MOL      0.065440
    160 H70         2.8660    0.7280    1.3340 hc        1 MOL      0.065440
    161 H71         2.2170    2.4000   -0.2650 hc        1 MOL      0.012079
    162 H72         1.6350    3.4060    1.1080 hc        1 MOL      0.012079
    163 N14         5.7710    0.4540    2.2590 n         1 MOL     -0.038476
    164 C55         6.7080   -0.2480    3.1810 c3        1 MOL     -0.257906
    165 H73         7.4100    0.4720    3.6020 h1        1 MOL      0.097928
    166 H74         6.1430   -0.7160    3.9870 h1        1 MOL      0.097928
    167 H75         7.2570   -1.0110    2.6310 h1        1 MOL      0.097928
    168 H76         5.5640    0.0570    1.3580 hn        1 MOL      0.017899
    169 Ca1        -2.1840   -0.0900   -0.1400 Ca        1 MOL      1.635568
    170 O24        -4.2390   -0.8680    1.5190 oh        1 MOL     -0.818208
    171 H77        -5.1730   -0.7050    1.6720 ho        1 MOL      0.397316
    172 H78        -3.8210   -0.6920    2.3620 ho        1 MOL      0.397316
    173 O25        -1.8680   -0.2480    2.6750 oh        1 MOL     -0.818208
    174 H79        -1.8400   -0.0780    3.6140 ho        1 MOL      0.397316
    175 H80        -0.9980   -0.0070    2.3620 ho        1 MOL      0.397316
@<TRIPOS>BOND
     1    1    2 1   
     2    1    4 1   
     3    1    5 1   
     4    1    6 1   
     5    2    3 2   
     6    2    7 1   
     7    7    8 1   
     8    7   15 1   
     9    8    9 1   
    10    8   11 1   
    11    8   16 1   
    12    9   10 2   
    13    9   19 1   
    14   11   12 1   
    15   11   17 1   
    16   11   18 1   
    17   12   13 1   
    18   12   14 1   
    19   19   20 1   
    20   19   24 1   
    21   20   21 1   
    22   20   23 1   
    23   20   25 1   
    24   21   22 2   
    25   21   29 1   
    26   23   26 1   
    27   23   27 1   
    28   23   28 1   
    29   29   30 1   
    30   29   37 1   
    31   30   31 1   
    32   30   33 1   
    33   30   38 1   
    34   31   32 2   
    35   31   41 1   
    36   33   34 1   
    37   33   39 1   
    38   33   40 1   
    39   34   35 1   
    40   34   36 1   
    41   41   42 1   
    42   41   45 1   
    43   42   43 1   
    44   42   46 1   
    45   42   47 1   
    46   43   44 2   
    47   43   48 1   
    48   48   49 1   
    49   48   56 1   
    50   49   50 1   
    51   49   52 1   
    52   49   57 1   
    53   50   51 2   
    54   50   62 1   
    55   52   53 1   
    56   52   58 1   
    57   52   59 1   
    58   53   54 1   
    59   53   55 2   
    60   54   60 1   
    61   54   61 1   
    62   62   63 1   
    63   62   66 1   
    64   63   64 1   
    65   63   67 1   
    66   63   68 1   
    67   64   65 2   
    68   64   69 1   
    69   69   70 1   
    70   69   76 1   
    71   70   71 1   
    72   70   73 1   
    73   70   77 1   
    74   71   72 2   
    75   71   83 1   
    76   73   74 1   
    77   73   75 1   
    78   73   78 1   
    79   74   80 1   
    80   74   81 1   
    81   74   82 1   
    82   75   79 1   
    83   83   84 1   
    84   83   91 1   
    85   84   85 1   
    86   84   87 1   
    87   84   92 1   
    88   85   86 2   
    89   85  102 1   
    90   87   88 1   
    91   87   89 1   
    92   87   93 1   
    93   88   90 1   
    94   88   94 1   
    95   88   95 1   
    96   89   96 1   
    97   89   97 1   
    98   89   98 1   
    99   90   99 1   
   100   90  100 1   
   101   90  101 1   
   102  102  103 1   
   103  102  110 1   
   104  103  104 1   
   105  103  106 1   
   106  103  111 1   
   107  104  105 2   
   108  104  114 1   
   109  106  107 1   
   110  106  112 1   
   111  106  113 1   
   112  107  108 1   
   113  107  109 1   
   114  114  115 1   
   115  114  125 1   
   116  115  116 1   
   117  115  118 1   
   118  115  126 1   
   119  116  117 2   
   120  116  134 1   
   121  118  119 1   
   122  118  127 1   
   123  118  128 1   
   124  119  120 ar  
   125  119  121 ar  
   126  120  122 ar  
   127  120  129 1   
   128  121  123 ar  
   129  121  130 1   
   130  122  124 ar  
   131  122  131 1   
   132  123  124 ar  
   133  123  132 1   
   134  124  133 1   
   135  134  135 1   
   136  134  140 1   
   137  135  136 1   
   138  135  138 1   
   139  135  141 1   
   140  136  137 2   
   141  136  148 1   
   142  138  139 1   
   143  138  142 1   
   144  138  143 1   
   145  139  140 1   
   146  139  144 1   
   147  139  145 1   
   148  140  146 1   
   149  140  147 1   
   150  148  149 1   
   151  148  157 1   
   152  149  150 1   
   153  149  152 1   
   154  149  158 1   
   155  150  151 2   
   156  150  163 1   
   157  152  153 1   
   158  152  159 1   
   159  152  160 1   
   160  153  154 1   
   161  153  161 1   
   162  153  162 1   
   163  154  155 1   
   164  154  156 1   
   165  163  164 1   
   166  163  168 1   
   167  164  165 1   
   168  164  166 1   
   169  164  167 1   
   170  170  171 1   
   171  170  172 1   
   172  173  174 1   
   173  173  175 1   
@<TRIPOS>SUBSTRUCTURE
     1 MOL         1 TEMP              0 ****  ****    0 ROOT
