@<TRIPOS>MOLECULE
MOL
  186   183     1     0     0
SMALL
resp


@<TRIPOS>ATOM
      1 C1          0.5560   -2.2210    6.1070 c3        1 MOL     -0.405285
      2 C2          0.8540   -2.0750    4.6510 c         1 MOL      1.013788
      3 O1          0.0930   -2.4480    3.8270 o         1 MOL     -0.694045
      4 H1          1.4770   -2.4420    6.6460 hc        1 MOL      0.079650
      5 H2          0.1280   -1.2930    6.4860 hc        1 MOL      0.079650
      6 H3         -0.1540   -3.0360    6.2530 hc        1 MOL      0.079650
      7 N1          2.0430   -1.5920    4.3940 n         1 MOL     -0.877282
      8 C3          2.6490   -1.4770    3.0470 c3        1 MOL      0.643550
      9 C4          2.9560   -2.9310    2.5720 c         1 MOL      0.431385
     10 O2          3.5690   -3.7390    3.2860 o         1 MOL     -0.620482
     11 C5          3.8800   -0.5430    3.1120 c3        1 MOL     -0.564161
     12 C6          4.4450   -0.3220    1.6560 c         1 MOL      0.822409
     13 O3          3.9430   -0.8500    0.6720 o         1 MOL     -0.624132
     14 O4          5.4560    0.4190    1.4300 o         1 MOL     -0.624132
     15 H4          2.5730   -1.3580    5.2260 hn        1 MOL      0.341372
     16 H5          1.9440   -0.9900    2.3750 h1        1 MOL     -0.073500
     17 H6          4.6970   -0.9240    3.7310 hc        1 MOL      0.117317
     18 H7          3.3990    0.3770    3.4590 hc        1 MOL      0.117317
     19 N2          2.4420   -3.3910    1.4220 n         1 MOL     -0.196778
     20 C7          2.4590   -4.8340    1.0250 c3        1 MOL     -0.008349
     21 C8          3.4490   -5.0880   -0.1160 c         1 MOL      0.436614
     22 O5          3.7840   -6.2690   -0.3360 o         1 MOL     -0.561783
     23 C9          1.0120   -5.3650    0.7190 c3        1 MOL      0.046096
     24 C10         0.8460   -6.8330    1.2050 c3        1 MOL      0.017111
     25 C11         0.6430   -5.0690   -0.7350 c3        1 MOL     -0.407430
     26 C12         0.9020   -7.0940    2.7110 c3        1 MOL     -0.173311
     27 H8          1.9370   -2.7430    0.8240 hn        1 MOL      0.131986
     28 H9          2.8080   -5.4880    1.8320 h1        1 MOL      0.110831
     29 H10         0.2920   -4.8550    1.3630 hc        1 MOL      0.091458
     30 H11         1.6060   -7.5050    0.8280 hc        1 MOL      0.001099
     31 H12        -0.1220   -7.2470    0.9100 hc        1 MOL      0.001099
     32 H13         0.7040   -3.9830   -0.8170 hc        1 MOL      0.126343
     33 H14         1.2160   -5.6070   -1.4900 hc        1 MOL      0.126343
     34 H15        -0.4050   -5.3070   -0.8430 hc        1 MOL      0.126343
     35 H16         0.7320   -6.2410    3.3750 hc        1 MOL      0.033457
     36 H17         0.3310   -7.9760    2.9820 hc        1 MOL      0.033457
     37 H18         1.9430   -7.3510    2.9390 hc        1 MOL      0.033457
     38 N3          4.0460   -4.0640   -0.6890 n         1 MOL     -0.378254
     39 C13         4.9580   -4.2830   -1.8240 c3        1 MOL      0.139140
     40 C14         6.2190   -3.3940   -1.5830 c         1 MOL      0.416754
     41 O6          7.2840   -3.7640   -2.0950 o         1 MOL     -0.552662
     42 C15         4.2470   -4.0100   -3.1760 c3        1 MOL     -0.321517
     43 C16         3.4500   -2.6930   -3.1710 c         1 MOL      0.839370
     44 O7          2.5750   -2.6080   -4.0830 o         1 MOL     -0.731125
     45 O8          3.5400   -1.7920   -2.2940 o         1 MOL     -0.731125
     46 H19         3.8100   -3.1280   -0.3790 hn        1 MOL      0.246225
     47 H20         5.3270   -5.3110   -1.7770 h1        1 MOL      0.065093
     48 H21         3.6090   -4.8940   -3.2480 hc        1 MOL      0.083354
     49 H22         5.0250   -4.0050   -3.9370 hc        1 MOL      0.083354
     50 N4          6.1730   -2.3420   -0.7400 n         1 MOL     -0.082374
     51 C17         7.3950   -1.7720   -0.1200 c3        1 MOL     -0.018688
     52 C18         8.0310   -0.5570   -0.7410 c         1 MOL      0.668265
     53 O9          9.1410   -0.6120   -1.1790 o         1 MOL     -0.620043
     54 H23         5.3430   -2.0030   -0.2770 hn        1 MOL      0.027814
     55 H24         8.2470   -2.4580   -0.0980 h1        1 MOL      0.008200
     56 H25         7.1100   -1.4410    0.8840 h1        1 MOL      0.008200
     57 N5          7.2480    0.4590   -0.8260 n         1 MOL     -0.464031
     58 C19         7.5230    1.7790   -1.4750 c3        1 MOL      0.192063
     59 C20         7.2040    3.0090   -0.5600 c         1 MOL      0.407877
     60 O10         7.5190    4.1190   -0.8750 o         1 MOL     -0.536718
     61 C21         6.6850    1.8600   -2.7450 c3        1 MOL     -0.449710
     62 C22         5.2130    1.5570   -2.4960 c         1 MOL      0.827505
     63 O11         4.7250    1.5670   -1.3260 o         1 MOL     -0.751052
     64 O12         4.5060    1.0960   -3.3970 o         1 MOL     -0.751052
     65 H26         6.3280    0.3320   -0.4350 hn        1 MOL      0.190377
     66 H27         8.5690    1.8170   -1.7630 h1        1 MOL      0.047199
     67 H28         7.0550    1.0130   -3.3160 hc        1 MOL      0.122855
     68 H29         6.8610    2.8260   -3.2250 hc        1 MOL      0.122855
     69 N6          6.6920    2.7410    0.6870 n         1 MOL     -0.243639
     70 C23         6.5210    3.7300    1.7200 c3        1 MOL     -0.124005
     71 C24         5.1350    4.3080    1.8620 c         1 MOL      0.444762
     72 O13         4.9400    5.3500    2.5760 o         1 MOL     -0.604577
     73 H30         6.3540    1.8080    0.8580 hn        1 MOL      0.142814
     74 H31         7.2130    4.5770    1.6230 h1        1 MOL      0.095661
     75 H32         6.7610    3.2550    2.6690 h1        1 MOL      0.095661
     76 N7          4.1560    3.8340    1.1180 n         1 MOL     -0.107445
     77 C25         2.7760    4.3100    1.2350 c3        1 MOL     -0.030809
     78 C26         1.8560    3.0380    1.2190 c         1 MOL      0.516918
     79 O14         2.1790    1.9900    0.7400 o         1 MOL     -0.563365
     80 C27         2.4680    5.2790    0.0620 c3        1 MOL     -0.013118
     81 C28         3.2390    6.6620    0.1690 c3        1 MOL     -0.170531
     82 C29         2.6690    7.6910   -0.8180 c         1 MOL      0.573556
     83 N8          2.6280    7.3980   -2.1150 n         1 MOL     -0.768832
     84 O15         2.1700    8.7360   -0.4130 o         1 MOL     -0.566435
     85 H33         4.2740    3.0110    0.5360 hn        1 MOL      0.126655
     86 H34         2.6220    4.7380    2.2160 h1        1 MOL      0.070269
     87 H35         1.3960    5.4750    0.0810 hc        1 MOL      0.028196
     88 H36         2.6320    4.8700   -0.9310 hc        1 MOL      0.028196
     89 H37         4.3030    6.5450   -0.0050 hc        1 MOL      0.081562
     90 H38         3.2590    7.0140    1.2010 hc        1 MOL      0.081562
     91 H39         3.2840    6.7280   -2.4760 hn        1 MOL      0.361631
     92 H40         2.1710    8.1580   -2.6060 hn        1 MOL      0.361631
     93 N9          0.6670    3.3350    1.7060 n         1 MOL     -0.473886
     94 C30        -0.4690    2.4440    1.6860 c3        1 MOL      0.102815
     95 C31        -1.4380    2.9150    0.6370 c         1 MOL      0.336682
     96 O16        -2.0880    3.9120    0.8800 o         1 MOL     -0.538945
     97 C32        -1.0940    2.4970    3.0900 c3        1 MOL      0.272641
     98 C33        -2.5700    2.0180    3.3080 c3        1 MOL     -0.466504
     99 C34        -0.2630    1.4720    3.9960 c3        1 MOL     -0.466504
    100 H41         0.4800    4.2770    2.0230 hn        1 MOL      0.290245
    101 H42        -0.1440    1.4240    1.4960 h1        1 MOL      0.144768
    102 H43        -0.9570    3.5100    3.4610 hc        1 MOL     -0.003582
    103 H44        -2.6750    2.1380    4.3790 hc        1 MOL      0.101017
    104 H45        -3.2220    2.6580    2.7020 hc        1 MOL      0.101017
    105 H46        -2.8130    0.9850    3.0690 hc        1 MOL      0.101017
    106 H47        -0.6800    0.4670    3.9500 hc        1 MOL      0.101017
    107 H48         0.7910    1.3430    3.7450 hc        1 MOL      0.101017
    108 H49        -0.4200    1.7000    5.0520 hc        1 MOL      0.101017
    109 N10        -1.6400    2.0940   -0.3790 n         1 MOL     -0.247273
    110 C35        -2.8410    2.2120   -1.2200 c3        1 MOL      0.192941
    111 C36        -4.1630    1.9400   -0.4650 c         1 MOL      0.289061
    112 O17        -4.1410    1.2850    0.6520 o         1 MOL     -0.289657
    113 C37        -2.6530    1.2140   -2.3440 c3        1 MOL     -0.543764
    114 C38        -3.7950    1.2780   -3.3900 c         1 MOL      0.754248
    115 N11        -3.9000    2.3870   -4.1100 n         1 MOL     -0.822979
    116 O18        -4.5940    0.4290   -3.4970 o         1 MOL     -0.515459
    117 H50        -0.9450    1.3650   -0.5020 hn        1 MOL      0.226542
    118 H51        -2.8300    3.2110   -1.6600 h1        1 MOL      0.024829
    119 H52        -2.7630    0.2280   -1.9000 hc        1 MOL      0.186181
    120 H53        -1.6860    1.2360   -2.8540 hc        1 MOL      0.186181
    121 H54        -3.1100    3.0100   -4.0340 hn        1 MOL      0.364326
    122 H55        -4.5230    2.3820   -4.8940 hn        1 MOL      0.364326
    123 N12        -5.3080    2.2450   -1.0170 n         1 MOL     -0.467878
    124 C39        -6.6160    1.9430   -0.3800 c3        1 MOL      0.336449
    125 C40        -6.9320    0.4740   -0.2770 c         1 MOL      0.591244
    126 O19        -7.6170    0.0910    0.6850 o         1 MOL     -0.506605
    127 C41        -7.6560    2.7180   -1.2190 c3        1 MOL     -0.067894
    128 C42        -9.0670    2.4890   -0.7480 ca        1 MOL     -0.114517
    129 C43        -9.3790    2.7300    0.6210 ca        1 MOL     -0.093480
    130 C44       -10.0160    1.7800   -1.5500 ca        1 MOL     -0.093480
    131 C45       -10.6550    2.3780    1.1510 ca        1 MOL     -0.305842
    132 C46       -11.2850    1.5300   -0.9900 ca        1 MOL     -0.305842
    133 C47       -11.5870    1.7520    0.3330 ca        1 MOL      0.430165
    134 O20       -12.8740    1.6460    0.7390 oh        1 MOL     -0.526936
    135 H56        -5.3200    2.8100   -1.8540 hn        1 MOL      0.235085
    136 H57        -6.4720    2.3010    0.6400 h1        1 MOL      0.009772
    137 H58        -7.6060    2.5690   -2.3010 hc        1 MOL      0.045166
    138 H59        -7.4480    3.7830   -1.1210 hc        1 MOL      0.045166
    139 H60        -8.5830    3.1740    1.2080 ha        1 MOL      0.116356
    140 H61        -9.7940    1.5270   -2.5760 ha        1 MOL      0.116356
    141 H62       -10.8910    2.6170    2.1760 ha        1 MOL      0.147055
    142 H63       -12.0120    0.9900   -1.5700 ha        1 MOL      0.147055
    143 H64       -13.5230    1.4020    0.0740 ho        1 MOL      0.354515
    144 N13        -6.2480   -0.3480   -1.1250 n         1 MOL     -0.563470
    145 C48        -6.3330   -1.8030   -1.0620 c3        1 MOL     -0.085959
    146 C49        -5.4300   -2.3610    0.1180 c         1 MOL      0.280481
    147 O21        -5.7390   -3.2740    0.8430 o         1 MOL     -0.477038
    148 C50        -5.8730   -2.3740   -2.4090 c3        1 MOL      0.274418
    149 C51        -5.9190   -3.9230   -2.3400 c3        1 MOL     -0.389717
    150 C52        -5.5700   -4.5260   -3.6870 c         1 MOL      0.670137
    151 O22        -4.6460   -3.9450   -4.3070 o         1 MOL     -0.728863
    152 O23        -6.3460   -5.3250   -4.2920 o         1 MOL     -0.728863
    153 H65        -5.8260    0.0270   -1.9610 hn        1 MOL      0.226979
    154 H66        -7.3790   -1.9890   -0.8430 h1        1 MOL      0.096866
    155 H67        -4.8520   -2.0550   -2.5960 hc        1 MOL      0.012255
    156 H68        -6.5080   -1.9870   -3.2050 hc        1 MOL      0.012255
    157 H69        -6.9100   -4.2150   -2.0080 hc        1 MOL      0.069120
    158 H70        -5.2810   -4.4060   -1.6060 hc        1 MOL      0.069120
    159 N14        -4.3290   -1.6690    0.3880 n         1 MOL     -0.115413
    160 C53        -3.4800   -2.0550    1.4910 c3        1 MOL     -0.146269
    161 C54        -4.1280   -1.6990    2.9040 c         1 MOL      0.445990
    162 O24        -3.9130   -2.3360    3.8990 o         1 MOL     -0.543435
    163 C55        -2.1180   -1.4400    1.3270 c3        1 MOL      0.090078
    164 C56        -1.4100   -1.8270    0.0640 c3        1 MOL      0.011507
    165 C57        -0.0750   -1.0440   -0.2750 c         1 MOL      0.694673
    166 O25         0.9980   -1.5780    0.0170 o         1 MOL     -0.742148
    167 O26        -0.0580   -0.0370   -1.0320 o         1 MOL     -0.742148
    168 H71        -4.1330   -0.9710   -0.3100 hn        1 MOL      0.249558
    169 H72        -3.3140   -3.1370    1.5450 h1        1 MOL      0.125515
    170 H73        -1.4400   -1.6760    2.1520 hc        1 MOL      0.029843
    171 H74        -2.1640   -0.3710    1.5070 hc        1 MOL      0.029843
    172 H75        -2.0670   -1.7920   -0.7980 hc        1 MOL     -0.029943
    173 H76        -1.0280   -2.8270    0.2850 hc        1 MOL     -0.029943
    174 N15        -5.0540   -0.7320    2.9120 n         1 MOL     -0.015937
    175 C58        -5.7610   -0.2670    4.0780 c3        1 MOL     -0.156853
    176 H77        -6.7690    0.0360    3.7940 h1        1 MOL      0.060280
    177 H78        -5.8170   -1.0690    4.8130 h1        1 MOL      0.060280
    178 H79        -5.2340    0.5850    4.5070 h1        1 MOL      0.060280
    179 H80        -5.0590   -0.1600    2.0770 hn        1 MOL      0.026131
    180 Ca1         2.5480    0.1690   -1.2050 Ca        1 MOL      1.765946
    181 O27         2.3030    2.7600   -2.0110 oh        1 MOL     -0.817537
    182 H81         2.9680    3.3540   -1.6650 ho        1 MOL      0.392173
    183 H82         2.2390    2.9900   -2.9400 ho        1 MOL      0.392173
    184 O28         1.7140   -0.0980   -3.8070 oh        1 MOL     -0.817537
    185 H83         1.1070   -0.0120   -4.5440 ho        1 MOL      0.392173
    186 H84         2.3000   -0.8080   -4.0510 ho        1 MOL      0.392173
@<TRIPOS>BOND
     1    1    2 1   
     2    1    4 1   
     3    1    5 1   
     4    1    6 1   
     5    2    3 2   
     6    2    7 1   
     7    7    8 1   
     8    7   15 1   
     9    8    9 1   
    10    8   11 1   
    11    8   16 1   
    12    9   10 2   
    13    9   19 1   
    14   11   12 1   
    15   11   17 1   
    16   11   18 1   
    17   12   13 1   
    18   12   14 1   
    19   19   20 1   
    20   19   27 1   
    21   20   21 1   
    22   20   23 1   
    23   20   28 1   
    24   21   22 2   
    25   21   38 1   
    26   23   24 1   
    27   23   25 1   
    28   23   29 1   
    29   24   26 1   
    30   24   30 1   
    31   24   31 1   
    32   25   32 1   
    33   25   33 1   
    34   25   34 1   
    35   26   35 1   
    36   26   36 1   
    37   26   37 1   
    38   38   39 1   
    39   38   46 1   
    40   39   40 1   
    41   39   42 1   
    42   39   47 1   
    43   40   41 2   
    44   40   50 1   
    45   42   43 1   
    46   42   48 1   
    47   42   49 1   
    48   43   44 1   
    49   43   45 1   
    50   50   51 1   
    51   50   54 1   
    52   51   52 1   
    53   51   55 1   
    54   51   56 1   
    55   52   53 2   
    56   52   57 1   
    57   57   58 1   
    58   57   65 1   
    59   58   59 1   
    60   58   61 1   
    61   58   66 1   
    62   59   60 2   
    63   59   69 1   
    64   61   62 1   
    65   61   67 1   
    66   61   68 1   
    67   62   63 1   
    68   62   64 1   
    69   69   70 1   
    70   69   73 1   
    71   70   71 1   
    72   70   74 1   
    73   70   75 1   
    74   71   72 2   
    75   71   76 1   
    76   76   77 1   
    77   76   85 1   
    78   77   78 1   
    79   77   80 1   
    80   77   86 1   
    81   78   79 2   
    82   78   93 1   
    83   80   81 1   
    84   80   87 1   
    85   80   88 1   
    86   81   82 1   
    87   81   89 1   
    88   81   90 1   
    89   82   83 1   
    90   82   84 2   
    91   83   91 1   
    92   83   92 1   
    93   93   94 1   
    94   93  100 1   
    95   94   95 1   
    96   94   97 1   
    97   94  101 1   
    98   95   96 2   
    99   95  109 1   
   100   97   98 1   
   101   97   99 1   
   102   97  102 1   
   103   98  103 1   
   104   98  104 1   
   105   98  105 1   
   106   99  106 1   
   107   99  107 1   
   108   99  108 1   
   109  109  110 1   
   110  109  117 1   
   111  110  111 1   
   112  110  113 1   
   113  110  118 1   
   114  111  112 2   
   115  111  123 1   
   116  113  114 1   
   117  113  119 1   
   118  113  120 1   
   119  114  115 1   
   120  114  116 2   
   121  115  121 1   
   122  115  122 1   
   123  123  124 1   
   124  123  135 1   
   125  124  125 1   
   126  124  127 1   
   127  124  136 1   
   128  125  126 2   
   129  125  144 1   
   130  127  128 1   
   131  127  137 1   
   132  127  138 1   
   133  128  129 ar  
   134  128  130 ar  
   135  129  131 ar  
   136  129  139 1   
   137  130  132 ar  
   138  130  140 1   
   139  131  133 ar  
   140  131  141 1   
   141  132  133 ar  
   142  132  142 1   
   143  133  134 1   
   144  134  143 1   
   145  144  145 1   
   146  144  153 1   
   147  145  146 1   
   148  145  148 1   
   149  145  154 1   
   150  146  147 2   
   151  146  159 1   
   152  148  149 1   
   153  148  155 1   
   154  148  156 1   
   155  149  150 1   
   156  149  157 1   
   157  149  158 1   
   158  150  151 1   
   159  150  152 1   
   160  159  160 1   
   161  159  168 1   
   162  160  161 1   
   163  160  163 1   
   164  160  169 1   
   165  161  162 2   
   166  161  174 1   
   167  163  164 1   
   168  163  170 1   
   169  163  171 1   
   170  164  165 1   
   171  164  172 1   
   172  164  173 1   
   173  165  166 1   
   174  165  167 1   
   175  174  175 1   
   176  174  179 1   
   177  175  176 1   
   178  175  177 1   
   179  175  178 1   
   180  181  182 1   
   181  181  183 1   
   182  184  185 1   
   183  184  186 1   
@<TRIPOS>SUBSTRUCTURE
     1 MOL         1 TEMP              0 ****  ****    0 ROOT
