@<TRIPOS>MOLECULE
MOL
  189   185     1     0     0
SMALL
resp


@<TRIPOS>ATOM
      1 C1          0.2130    0.2020    6.3920 c3        1 MOL     -0.298580
      2 C2         -0.0720    0.3390    4.8330 c         1 MOL      0.745201
      3 O1          0.6180    1.1290    4.1700 o         1 MOL     -0.620182
      4 H1          1.1310    0.7340    6.6410 hc        1 MOL      0.080244
      5 H2         -0.6180    0.6300    6.9530 hc        1 MOL      0.080244
      6 H3          0.3230   -0.8510    6.6510 hc        1 MOL      0.080244
      7 N1         -1.1490   -0.2280    4.3140 n         1 MOL     -0.660824
      8 C3         -1.7580    0.2970    3.0550 c3        1 MOL      0.080964
      9 C4         -2.2560    1.7490    3.2320 c         1 MOL      0.659394
     10 O2         -3.0260    2.0720    4.1600 o         1 MOL     -0.600619
     11 C5         -2.7520   -0.7570    2.6350 c3        1 MOL     -0.193512
     12 C6         -3.6130   -0.3190    1.4560 c         1 MOL      0.473564
     13 O3         -3.4560    0.7490    0.8330 o         1 MOL     -0.492022
     14 O4         -4.6970   -0.9360    1.1570 o         1 MOL     -0.492022
     15 H4         -1.6110   -0.8990    4.9110 hn        1 MOL      0.343850
     16 H5         -0.9470    0.2060    2.3290 h1        1 MOL      0.086739
     17 H6         -3.3220   -1.1310    3.4840 hc        1 MOL      0.071177
     18 H7         -2.2510   -1.6590    2.3080 hc        1 MOL      0.071177
     19 N2         -1.7660    2.6610    2.4310 n         1 MOL     -0.329415
     20 C7         -2.1770    4.1550    2.3690 c3        1 MOL     -0.127133
     21 C8         -3.3020    4.5880    1.4310 c         1 MOL      0.562302
     22 O5         -3.4370    5.8440    1.2920 o         1 MOL     -0.550659
     23 C9         -0.8380    4.9430    2.1170 c3        1 MOL     -0.066208
     24 C10        -0.1320    4.5850    0.7780 c3        1 MOL      0.046649
     25 C11         0.7380    5.6860    0.1660 c3        1 MOL     -0.135306
     26 C12         1.0210    5.1240   -1.2850 c3        1 MOL      0.237566
     27 N3         -0.1510    5.2310   -2.1150 n4        1 MOL     -0.430449
     28 H8         -1.0580    2.2690    1.8310 hn        1 MOL      0.215982
     29 H9         -2.6140    4.4540    3.3150 h1        1 MOL      0.134316
     30 H10        -0.0940    4.7470    2.8780 hc        1 MOL      0.032316
     31 H11        -1.0520    6.0120    2.1150 hc        1 MOL      0.032316
     32 H12        -0.8990    4.1300    0.1510 hc        1 MOL      0.093109
     33 H13         0.5710    3.8300    1.1260 hc        1 MOL      0.093109
     34 H14         1.6410    5.5730    0.7590 hc        1 MOL      0.064601
     35 H15         0.3040    6.6820    0.1110 hc        1 MOL      0.064601
     36 H16         1.2900    4.0710   -1.2480 hx        1 MOL     -0.068861
     37 H17         1.8090    5.7320   -1.7370 hx        1 MOL     -0.068861
     38 H18         0.0540    5.1450   -3.0920 hn        1 MOL      0.324164
     39 H19        -0.8750    4.5500   -1.9130 hn        1 MOL      0.324164
     40 H20        -0.5930    6.1340   -2.0480 hn        1 MOL      0.324164
     41 N4         -3.9630    3.6250    0.7500 n         1 MOL     -0.213029
     42 C13        -5.0410    3.8970   -0.2040 c3        1 MOL     -0.206897
     43 C14        -6.4180    3.2610    0.1720 c         1 MOL      0.628779
     44 O6         -7.4910    3.7150   -0.1630 o         1 MOL     -0.527441
     45 C15        -4.6800    3.4570   -1.5900 c3        1 MOL     -0.014948
     46 C16        -3.1660    3.6760   -1.9410 c         1 MOL      0.711270
     47 O7         -2.2510    2.8220   -1.7870 o         1 MOL     -0.716854
     48 O8         -2.7950    4.7750   -2.3310 o         1 MOL     -0.716854
     49 H21        -3.6090    2.6870    0.7930 hn        1 MOL      0.015916
     50 H22        -5.2120    4.9760   -0.1750 h1        1 MOL      0.113522
     51 H23        -5.2570    3.7750   -2.4670 hc        1 MOL      0.032563
     52 H24        -4.8160    2.3790   -1.5790 hc        1 MOL      0.032563
     53 N5         -6.3770    2.1580    0.9410 n         1 MOL     -0.481827
     54 C17        -7.5150    1.2160    1.0270 c3        1 MOL     -0.127057
     55 C18        -7.7360    0.1840   -0.0790 c         1 MOL      0.506041
     56 O9         -8.8780   -0.1810   -0.2640 o         1 MOL     -0.573777
     57 H25        -5.5300    1.6540    1.1770 hn        1 MOL      0.340399
     58 H26        -8.4220    1.8090    1.0280 h1        1 MOL      0.106454
     59 H27        -7.4070    0.6120    1.9280 h1        1 MOL      0.106454
     60 N6         -6.7250   -0.2680   -0.7810 n         1 MOL     -0.106200
     61 C19        -6.8620   -1.3470   -1.7810 c3        1 MOL     -0.049313
     62 C20        -6.7890   -2.7710   -1.2050 c         1 MOL      0.446221
     63 O10        -7.3480   -3.7480   -1.6730 o         1 MOL     -0.534374
     64 C21        -5.8440   -1.1590   -2.9120 c3        1 MOL     -0.350842
     65 C22        -4.4880   -0.6700   -2.4050 c         1 MOL      0.738141
     66 O11        -3.9420    0.3880   -2.8330 o         1 MOL     -0.763175
     67 O12        -3.8460   -1.3080   -1.5070 o         1 MOL     -0.763175
     68 H28        -5.7810    0.0300   -0.5570 hn        1 MOL      0.104411
     69 H29        -7.8180   -1.2450   -2.3060 h1        1 MOL      0.119731
     70 H30        -6.2960   -0.3640   -3.4970 hc        1 MOL      0.127034
     71 H31        -5.6440   -2.0690   -3.4800 hc        1 MOL      0.127034
     72 N7         -6.2310   -2.8610    0.0220 n         1 MOL     -0.177916
     73 C23        -5.9170   -4.1690    0.6960 c3        1 MOL      0.064519
     74 C24        -4.6920   -4.8740    0.1820 c         1 MOL      0.475127
     75 O13        -4.7040   -6.0880    0.1620 o         1 MOL     -0.540613
     76 H32        -5.7880   -2.0430    0.4260 hn        1 MOL      0.080794
     77 H33        -6.8360   -4.7500    0.8060 h1        1 MOL      0.020927
     78 H34        -5.6340   -3.8520    1.7040 h1        1 MOL      0.020927
     79 N8         -3.6940   -4.0480   -0.1600 n         1 MOL     -0.086636
     80 C25        -2.3740   -4.5100   -0.4950 c3        1 MOL     -0.241639
     81 C26        -1.2260   -3.5410   -0.1790 c         1 MOL      0.499191
     82 O14        -1.3390   -2.3260   -0.3350 o         1 MOL     -0.517466
     83 C27        -2.4100   -4.6910   -2.0490 c3        1 MOL      0.417437
     84 C28        -3.3200   -5.8310   -2.4690 c3        1 MOL     -0.456035
     85 O15        -2.9630   -3.5430   -2.7530 oh        1 MOL     -0.615299
     86 H35        -3.9360   -3.0690   -0.1510 hn        1 MOL      0.097380
     87 H36        -2.2720   -5.4560    0.0430 h1        1 MOL      0.111685
     88 H37        -1.4270   -4.9500   -2.4170 h1        1 MOL     -0.018525
     89 H38        -3.0520   -2.8920   -2.0530 ho        1 MOL      0.442515
     90 H39        -2.9630   -6.0230   -3.4820 hc        1 MOL      0.123972
     91 H40        -3.0200   -6.7130   -1.8940 hc        1 MOL      0.123972
     92 H41        -4.3540   -5.5060   -2.3510 hc        1 MOL      0.123972
     93 N9         -0.0510   -4.1410    0.1300 n         1 MOL     -0.469083
     94 C29         1.1320   -3.3980    0.4750 c3        1 MOL      0.058195
     95 C30         2.1880   -3.5190   -0.6210 c         1 MOL      0.368166
     96 O16         2.6230   -4.5850   -0.9760 o         1 MOL     -0.516321
     97 C31         1.6210   -3.8680    1.8380 c3        1 MOL      0.026888
     98 C32         0.7910   -3.2640    3.0050 c3        1 MOL      0.088866
     99 C33         3.1060   -3.4830    2.0850 c3        1 MOL     -0.263662
    100 C34         1.1810   -3.8140    4.3660 c3        1 MOL     -0.336888
    101 H42        -0.0330   -5.1330    0.3160 hn        1 MOL      0.305836
    102 H43         0.8640   -2.3480    0.5370 h1        1 MOL      0.069382
    103 H44         1.4200   -4.9250    1.9750 hc        1 MOL      0.048950
    104 H45        -0.2620   -3.4470    2.8030 hc        1 MOL      0.008706
    105 H46         0.9270   -2.1930    3.1690 hc        1 MOL      0.008706
    106 H47         3.4800   -3.8900    3.0240 hc        1 MOL      0.065062
    107 H48         3.7690   -3.8820    1.3110 hc        1 MOL      0.065062
    108 H49         3.2830   -2.4080    2.1770 hc        1 MOL      0.065062
    109 H50         2.1600   -3.4580    4.7100 hc        1 MOL      0.083258
    110 H51         0.4280   -3.4480    5.0610 hc        1 MOL      0.083258
    111 H52         1.2370   -4.9050    4.3430 hc        1 MOL      0.083258
    112 N10         2.5850   -2.3390   -1.0710 n         1 MOL      0.002512
    113 C35         3.7470   -2.0210   -1.9050 c3        1 MOL      0.054450
    114 C36         5.0340   -1.7240   -1.1850 c         1 MOL      0.141736
    115 O17         5.0370   -1.7280    0.0450 o         1 MOL     -0.201761
    116 C37         3.4640   -0.7450   -2.8250 c3        1 MOL      0.031772
    117 C38         2.4400   -0.9850   -3.8940 c3        1 MOL      0.250180
    118 O18         3.0270    0.4370   -2.1040 oh        1 MOL     -0.739749
    119 H53         2.0960   -1.5300   -0.7200 hn        1 MOL      0.052240
    120 H54         3.8600   -2.8510   -2.5990 h1        1 MOL      0.060747
    121 H55         4.3860   -0.5100   -3.3640 h1        1 MOL      0.058453
    122 H56         2.1070    0.3280   -1.8710 ho        1 MOL      0.628425
    123 H57         2.8820   -1.5570   -4.7030 hc        1 MOL     -0.076862
    124 H58         1.5840   -1.4820   -3.4290 hc        1 MOL     -0.076862
    125 H59         2.0310   -0.0870   -4.3610 hc        1 MOL     -0.076862
    126 N11         6.1900   -1.5390   -1.8610 n         1 MOL     -0.132511
    127 C39         7.4850   -1.5410   -1.1810 c3        1 MOL     -0.179075
    128 C40         7.7880   -0.4020   -0.2380 c         1 MOL      0.362661
    129 O19         8.4480   -0.6720    0.7800 o         1 MOL     -0.482709
    130 C41         8.7650   -1.5330   -2.0630 c3        1 MOL      0.217170
    131 C42         8.9290   -2.8450   -2.7910 c3        1 MOL     -0.297887
    132 O20         8.5310   -0.4090   -2.9730 oh        1 MOL     -0.601861
    133 H60         6.1960   -1.5510   -2.8760 hn        1 MOL      0.251172
    134 H61         7.4920   -2.4570   -0.5930 h1        1 MOL      0.162776
    135 H62         9.6290   -1.2990   -1.4430 h1        1 MOL      0.101662
    136 H63         9.4430   -0.2400   -3.2340 ho        1 MOL      0.398961
    137 H64         9.1380   -3.6360   -2.0600 hc        1 MOL      0.092783
    138 H65         8.0490   -3.2070   -3.3290 hc        1 MOL      0.092783
    139 H66         9.7730   -2.7320   -3.4620 hc        1 MOL      0.092783
    140 N12         7.2410    0.7980   -0.4510 n         1 MOL     -0.229325
    141 C43         6.9900    1.9300    0.4730 c3        1 MOL      0.075144
    142 C44         6.0100    1.7250    1.6440 c         1 MOL      0.291655
    143 O21         6.2210    2.2780    2.7120 o         1 MOL     -0.495118
    144 C45         6.4730    3.1550   -0.3580 c3        1 MOL     -0.224028
    145 C46         5.1820    2.8980   -1.2040 c3        1 MOL      0.289454
    146 C47         5.0770    3.8200   -2.4310 c3        1 MOL     -0.156247
    147 C48         4.2510    3.3640   -3.6300 c3        1 MOL      0.125064
    148 N13         4.2060    4.2790   -4.7770 n4        1 MOL     -0.419874
    149 H67         6.8860    0.8580   -1.3860 hn        1 MOL      0.130817
    150 H68         7.9330    2.2540    0.8990 h1        1 MOL      0.119299
    151 H69         7.3090    3.3750   -1.0340 hc        1 MOL      0.056958
    152 H70         6.3070    4.0280    0.2730 hc        1 MOL      0.056958
    153 H71         4.2870    3.0280   -0.5890 hc        1 MOL      0.030137
    154 H72         5.2280    1.8770   -1.5720 hc        1 MOL      0.030137
    155 H73         6.0870    3.8800   -2.8350 hc        1 MOL      0.032825
    156 H74         4.7390    4.7620   -2.0040 hc        1 MOL      0.032825
    157 H75         3.3160    3.0700   -3.1520 hx        1 MOL      0.044565
    158 H76         4.7250    2.4270   -3.9200 hx        1 MOL      0.044565
    159 H77         5.1030    4.5310   -5.1770 hn        1 MOL      0.345742
    160 H78         3.6240    3.9830   -5.5570 hn        1 MOL      0.345742
    161 H79         3.7990    5.1380   -4.4510 hn        1 MOL      0.345742
    162 N14         5.0970    0.8460    1.4800 n         1 MOL      0.018555
    163 C49         4.0850    0.5030    2.4600 c3        1 MOL     -0.162937
    164 C50         4.7110   -0.6440    3.3150 c         1 MOL      0.468831
    165 O22         4.4780   -0.7500    4.5320 o         1 MOL     -0.555726
    166 C51         2.7300    0.1220    1.8490 c3        1 MOL      0.257318
    167 C52         2.0670    1.1910    1.0310 c3        1 MOL     -0.232810
    168 C53         0.7920    0.7580    0.3250 c         1 MOL      0.739942
    169 O23         0.8130   -0.1110   -0.6170 o         1 MOL     -0.791181
    170 O24        -0.3130    1.2740    0.5270 o         1 MOL     -0.791181
    171 H80         5.0960    0.4070    0.5730 hn        1 MOL     -0.080337
    172 H81         3.8300    1.2900    3.1650 h1        1 MOL      0.134363
    173 H82         2.0780   -0.3420    2.5930 hc        1 MOL      0.008172
    174 H83         2.8780   -0.6840    1.1370 hc        1 MOL      0.008172
    175 H84         2.7510    1.5190    0.2480 hc        1 MOL      0.027439
    176 H85         1.9500    2.0530    1.6840 hc        1 MOL      0.027439
    177 N15         5.6090   -1.4450    2.7940 n         1 MOL     -0.007910
    178 C54         6.3690   -2.4350    3.5240 c3        1 MOL     -0.242899
    179 H86         7.3510   -2.0310    3.7690 h1        1 MOL      0.095101
    180 H87         5.8430   -2.6930    4.4430 h1        1 MOL      0.095101
    181 H88         6.4880   -3.3290    2.9100 h1        1 MOL      0.095101
    182 H89         5.6080   -1.5380    1.7840 hn        1 MOL      0.054527
    183 Ca1        -1.7770    0.3010   -1.3500 Ca        1 MOL      1.775192
    184 O25        -1.4320   -1.2370   -3.5910 oh        1 MOL     -0.858302
    185 H90        -1.0880   -0.9620   -4.4400 ho        1 MOL      0.406727
    186 H91        -1.8850   -2.0630   -3.7660 ho        1 MOL      0.406727
    187 O26         0.0040    1.4710   -3.1260 oh        1 MOL     -0.858302
    188 H92         0.9060    1.3540   -3.4010 ho        1 MOL      0.406727
    189 H93        -0.4590    1.7430   -3.9140 ho        1 MOL      0.406727
@<TRIPOS>BOND
     1    1    2 1   
     2    1    4 1   
     3    1    5 1   
     4    1    6 1   
     5    2    3 2   
     6    2    7 1   
     7    7    8 1   
     8    7   15 1   
     9    8    9 1   
    10    8   11 1   
    11    8   16 1   
    12    9   10 2   
    13    9   19 1   
    14   11   12 1   
    15   11   17 1   
    16   11   18 1   
    17   12   13 1   
    18   12   14 1   
    19   19   20 1   
    20   19   28 1   
    21   20   21 1   
    22   20   23 1   
    23   20   29 1   
    24   21   22 2   
    25   21   41 1   
    26   23   24 1   
    27   23   30 1   
    28   23   31 1   
    29   24   25 1   
    30   24   32 1   
    31   24   33 1   
    32   25   26 1   
    33   25   34 1   
    34   25   35 1   
    35   26   27 1   
    36   26   36 1   
    37   26   37 1   
    38   27   38 1   
    39   27   39 1   
    40   27   40 1   
    41   41   42 1   
    42   41   49 1   
    43   42   43 1   
    44   42   45 1   
    45   42   50 1   
    46   43   44 2   
    47   43   53 1   
    48   45   46 1   
    49   45   51 1   
    50   45   52 1   
    51   46   47 1   
    52   46   48 1   
    53   53   54 1   
    54   53   57 1   
    55   54   55 1   
    56   54   58 1   
    57   54   59 1   
    58   55   56 2   
    59   55   60 1   
    60   60   61 1   
    61   60   68 1   
    62   61   62 1   
    63   61   64 1   
    64   61   69 1   
    65   62   63 2   
    66   62   72 1   
    67   64   65 1   
    68   64   70 1   
    69   64   71 1   
    70   65   66 1   
    71   65   67 1   
    72   72   73 1   
    73   72   76 1   
    74   73   74 1   
    75   73   77 1   
    76   73   78 1   
    77   74   75 2   
    78   74   79 1   
    79   79   80 1   
    80   79   86 1   
    81   80   81 1   
    82   80   83 1   
    83   80   87 1   
    84   81   82 2   
    85   81   93 1   
    86   83   84 1   
    87   83   85 1   
    88   83   88 1   
    89   84   90 1   
    90   84   91 1   
    91   84   92 1   
    92   85   89 1   
    93   93   94 1   
    94   93  101 1   
    95   94   95 1   
    96   94   97 1   
    97   94  102 1   
    98   95   96 2   
    99   95  112 1   
   100   97   98 1   
   101   97   99 1   
   102   97  103 1   
   103   98  100 1   
   104   98  104 1   
   105   98  105 1   
   106   99  106 1   
   107   99  107 1   
   108   99  108 1   
   109  100  109 1   
   110  100  110 1   
   111  100  111 1   
   112  112  113 1   
   113  112  119 1   
   114  113  114 1   
   115  113  116 1   
   116  113  120 1   
   117  114  115 2   
   118  114  126 1   
   119  116  117 1   
   120  116  118 1   
   121  116  121 1   
   122  117  123 1   
   123  117  124 1   
   124  117  125 1   
   125  118  122 1   
   126  126  127 1   
   127  126  133 1   
   128  127  128 1   
   129  127  130 1   
   130  127  134 1   
   131  128  129 2   
   132  128  140 1   
   133  130  131 1   
   134  130  132 1   
   135  130  135 1   
   136  131  137 1   
   137  131  138 1   
   138  131  139 1   
   139  132  136 1   
   140  140  141 1   
   141  140  149 1   
   142  141  142 1   
   143  141  144 1   
   144  141  150 1   
   145  142  143 2   
   146  142  162 1   
   147  144  145 1   
   148  144  151 1   
   149  144  152 1   
   150  145  146 1   
   151  145  153 1   
   152  145  154 1   
   153  146  147 1   
   154  146  155 1   
   155  146  156 1   
   156  147  148 1   
   157  147  157 1   
   158  147  158 1   
   159  148  159 1   
   160  148  160 1   
   161  148  161 1   
   162  162  163 1   
   163  162  171 1   
   164  163  164 1   
   165  163  166 1   
   166  163  172 1   
   167  164  165 2   
   168  164  177 1   
   169  166  167 1   
   170  166  173 1   
   171  166  174 1   
   172  167  168 1   
   173  167  175 1   
   174  167  176 1   
   175  168  169 1   
   176  168  170 1   
   177  177  178 1   
   178  177  182 1   
   179  178  179 1   
   180  178  180 1   
   181  178  181 1   
   182  184  185 1   
   183  184  186 1   
   184  187  188 1   
   185  187  189 1   
@<TRIPOS>SUBSTRUCTURE
     1 MOL         1 TEMP              0 ****  ****    0 ROOT
