@<TRIPOS>MOLECULE
MOL
  179   176     1     0     0
SMALL
resp


@<TRIPOS>ATOM
      1 C1          1.8200    3.8870    4.1270 c3        1 MOL     -0.418955
      2 C2          1.1480    3.4360    2.8820 c         1 MOL      0.601267
      3 O1          1.7440    3.2630    1.7930 o         1 MOL     -0.555935
      4 H1          1.4660    4.8850    4.3880 hc        1 MOL      0.111136
      5 H2          1.5880    3.1970    4.9370 hc        1 MOL      0.111136
      6 H3          2.8980    3.9140    3.9690 hc        1 MOL      0.111136
      7 N1         -0.1690    3.2480    3.0070 n         1 MOL     -0.607560
      8 C3         -1.1370    2.9040    1.9670 c3        1 MOL     -0.011381
      9 C4         -1.9360    4.1790    1.4780 c         1 MOL      0.637215
     10 O2         -3.1320    4.3250    1.6820 o         1 MOL     -0.479179
     11 C5         -1.9350    1.6690    2.4470 c3        1 MOL      0.000422
     12 C6         -2.9570    1.1590    1.4290 c         1 MOL      0.483749
     13 O3         -4.1050    0.9550    1.7300 o         1 MOL     -0.634296
     14 O4         -2.5750    0.8790    0.2600 o         1 MOL     -0.634296
     15 H4         -0.5450    3.0690    3.9290 hn        1 MOL      0.340666
     16 H5         -0.5920    2.4670    1.1210 h1        1 MOL      0.040130
     17 H6         -2.4890    1.9320    3.3430 hc        1 MOL      0.025215
     18 H7         -1.2940    0.8340    2.7260 hc        1 MOL      0.025215
     19 N2         -1.2100    5.0780    0.8640 n         1 MOL     -0.510346
     20 C7         -1.7180    6.2790    0.2060 c3        1 MOL     -0.160417
     21 C8         -2.7440    6.0280   -0.9260 c         1 MOL      0.504487
     22 O5         -3.6020    6.8670   -1.1490 o         1 MOL     -0.527451
     23 C9         -0.4660    7.0440   -0.3650 c3        1 MOL      0.094737
     24 C10         0.5620    7.5350    0.6590 c3        1 MOL     -0.031502
     25 C11         1.5780    8.6380    0.2320 c3        1 MOL      0.054501
     26 C12         2.6820    8.7720    1.3020 c3        1 MOL     -0.174085
     27 N3          3.3300    7.4970    1.5850 n4        1 MOL     -0.237622
     28 H8         -0.2170    4.9050    0.8030 hn        1 MOL      0.362060
     29 H9         -2.2320    6.7920    1.0170 h1        1 MOL      0.140909
     30 H10        -0.8890    7.8300   -0.9900 hc        1 MOL      0.002822
     31 H11        -0.0990    6.3560   -1.1300 hc        1 MOL      0.002822
     32 H12         1.1160    6.6340    0.9260 hc        1 MOL      0.003382
     33 H13         0.0210    7.9630    1.5070 hc        1 MOL      0.003382
     34 H14         0.9870    9.5070   -0.0590 hc        1 MOL      0.044528
     35 H15         2.0530    8.3660   -0.7120 hc        1 MOL      0.044528
     36 H16         2.2590    9.0860    2.2560 hx        1 MOL      0.133841
     37 H17         3.3400    9.5420    0.8920 hx        1 MOL      0.133841
     38 H18         3.3110    6.9530    0.7360 hn        1 MOL      0.312891
     39 H19         4.2580    7.6060    1.9840 hn        1 MOL      0.312891
     40 H20         2.7830    6.8580    2.1400 hn        1 MOL      0.312891
     41 N4         -2.6470    4.8890   -1.6490 n         1 MOL     -0.327053
     42 C13        -3.5260    4.4710   -2.7300 c3        1 MOL      0.023325
     43 C14        -4.7760    3.8130   -2.1410 c         1 MOL      0.462936
     44 O6         -5.7350    3.6380   -2.8610 o         1 MOL     -0.546734
     45 C15        -2.7360    3.4880   -3.6240 c3        1 MOL     -0.299446
     46 C16        -2.0460    2.3420   -2.8520 c         1 MOL      0.936611
     47 O7         -0.9940    2.6030   -2.1970 o         1 MOL     -0.791856
     48 O8         -2.5590    1.2150   -2.9360 o         1 MOL     -0.791856
     49 H21        -1.8850    4.2590   -1.4680 hn        1 MOL      0.271877
     50 H22        -3.8380    5.3930   -3.2260 h1        1 MOL      0.096030
     51 H23        -1.8500    3.9890   -4.0030 hc        1 MOL      0.065903
     52 H24        -3.2990    3.1570   -4.4960 hc        1 MOL      0.065903
     53 N5         -4.7240    3.4250   -0.8500 n         1 MOL     -0.007922
     54 C17        -5.8250    2.9790   -0.0140 c3        1 MOL     -0.334558
     55 C18        -6.3680    1.5030   -0.2780 c         1 MOL      0.596688
     56 O9         -7.4730    1.2530    0.2040 o         1 MOL     -0.573574
     57 H25        -3.8220    3.4570   -0.3920 hn        1 MOL      0.021547
     58 H26        -6.6490    3.6680   -0.1890 h1        1 MOL      0.146710
     59 H27        -5.4960    2.9920    1.0240 h1        1 MOL      0.146710
     60 N6         -5.6290    0.6300   -0.9660 n         1 MOL     -0.327988
     61 C19        -6.1690   -0.6380   -1.4650 c3        1 MOL      0.035836
     62 C20        -6.2370   -1.6750   -0.3660 c         1 MOL      0.355602
     63 O10        -6.6310   -2.7670   -0.7150 o         1 MOL     -0.470982
     64 C21        -5.4060   -1.1430   -2.7100 c3        1 MOL     -0.285048
     65 C22        -3.9900   -1.5720   -2.5040 c         1 MOL      0.921143
     66 N7         -3.3430   -2.2460   -3.4260 n         1 MOL     -0.912237
     67 O11        -3.3680   -1.3430   -1.4700 o         1 MOL     -0.770323
     68 H28        -4.7080    0.8740   -1.2900 hn        1 MOL      0.223474
     69 H29        -7.2340   -0.5630   -1.6830 h1        1 MOL      0.104841
     70 H30        -5.2760   -0.4430   -3.5310 hc        1 MOL      0.094234
     71 H31        -5.9580   -2.0440   -3.0000 hc        1 MOL      0.094234
     72 H32        -3.8060   -2.4780   -4.2980 hn        1 MOL      0.388368
     73 H33        -2.5040   -2.6680   -3.0690 hn        1 MOL      0.388368
     74 N8         -5.8590   -1.4120    0.8680 n         1 MOL     -0.198521
     75 C23        -5.8660   -2.2250    2.1050 c3        1 MOL     -0.254297
     76 C24        -4.6740   -3.0920    2.3150 c         1 MOL      0.658353
     77 O12        -4.6520   -3.8170    3.3030 o         1 MOL     -0.589249
     78 H34        -5.5380   -0.4630    1.0020 hn        1 MOL      0.289926
     79 H35        -6.6810   -2.9500    2.0930 h1        1 MOL      0.129719
     80 H36        -6.0080   -1.5640    2.9640 h1        1 MOL      0.129719
     81 N9         -3.6230   -2.8950    1.4790 n         1 MOL     -0.546203
     82 C25        -2.3330   -3.6220    1.4600 c3        1 MOL      0.332000
     83 C26        -1.1270   -2.6830    1.4340 c         1 MOL      0.442349
     84 O13        -1.1510   -1.5760    0.8500 o         1 MOL     -0.612328
     85 C27        -2.3050   -4.6300    0.3160 c3        1 MOL     -0.116525
     86 C28        -3.4600   -5.5960    0.1820 ca        1 MOL      0.044805
     87 C29        -4.5680   -5.1400   -0.4950 ca        1 MOL     -0.167108
     88 C30        -3.4590   -6.9230    0.6660 ca        1 MOL     -0.167108
     89 C31        -5.7230   -5.9610   -0.5910 ca        1 MOL     -0.220864
     90 C32        -4.6420   -7.6920    0.7140 ca        1 MOL     -0.220864
     91 C33        -5.8490   -7.1870    0.1130 ca        1 MOL      0.320721
     92 O14        -6.9300   -7.9860   -0.1210 oh        1 MOL     -0.492926
     93 H37        -3.7330   -2.1620    0.7910 hn        1 MOL      0.426605
     94 H38        -2.1660   -4.1790    2.3800 h1        1 MOL     -0.003507
     95 H39        -1.3970   -5.2160    0.4850 hc        1 MOL      0.031310
     96 H40        -2.3080   -4.1080   -0.6360 hc        1 MOL      0.031310
     97 H41        -4.6260   -4.1470   -0.9290 ha        1 MOL      0.114247
     98 H42        -2.5980   -7.2970    1.2050 ha        1 MOL      0.114247
     99 H43        -6.5280   -5.6440   -1.2510 ha        1 MOL      0.126858
    100 H44        -4.6570   -8.6750    1.1500 ha        1 MOL      0.126858
    101 H45        -7.0920   -8.6300    0.5710 ho        1 MOL      0.369104
    102 N10        -0.0130   -3.1240    2.0850 n         1 MOL     -0.490160
    103 C34         1.3520   -2.4820    2.1090 c3        1 MOL      0.087326
    104 C35         2.3330   -3.3930    1.4330 c         1 MOL      0.389486
    105 O15         2.6360   -4.4810    2.0010 o         1 MOL     -0.551745
    106 C36         1.7870   -1.9800    3.5280 c3        1 MOL      0.136108
    107 C37         0.9940   -0.6430    3.9150 c3        1 MOL     -0.103712
    108 C38         3.2840   -1.7370    3.8730 c3        1 MOL     -0.127308
    109 C39         0.6040   -0.5200    5.3710 c3        1 MOL     -0.245972
    110 H46        -0.1400   -3.8420    2.7830 hn        1 MOL      0.313339
    111 H47         1.2450   -1.6120    1.4610 h1        1 MOL     -0.068929
    112 H48         1.4120   -2.8120    4.1330 hc        1 MOL      0.016491
    113 H49         0.0250   -0.5290    3.4320 hc        1 MOL      0.136664
    114 H50         1.6560    0.1940    3.6620 hc        1 MOL      0.136664
    115 H51         3.3710   -1.1860    4.8050 hc        1 MOL      0.027060
    116 H52         3.8200   -2.6690    4.0370 hc        1 MOL      0.027060
    117 H53         3.8020   -1.1410    3.1260 hc        1 MOL      0.027060
    118 H54        -0.1970    0.2160    5.4690 hc        1 MOL      0.056395
    119 H55         0.3080   -1.5180    5.6780 hc        1 MOL      0.056395
    120 H56         1.4720   -0.3070    5.9990 hc        1 MOL      0.056395
    121 N11         2.9090   -3.0470    0.2930 n         1 MOL     -0.173225
    122 C40         3.8840   -3.8430   -0.4300 c3        1 MOL     -0.126498
    123 C41         5.3100   -3.4370   -0.0260 c         1 MOL      0.468199
    124 O16         5.6290   -2.4560    0.6800 o         1 MOL     -0.454471
    125 C42         3.7660   -3.4670   -1.8550 c3        1 MOL     -0.208115
    126 O17         3.9240   -2.0850   -2.1700 oh        1 MOL     -0.446870
    127 H57         2.8270   -2.0920   -0.0400 hn        1 MOL      0.430645
    128 H58         3.8740   -4.9270   -0.3210 h1        1 MOL      0.116424
    129 H59         2.8440   -3.8610   -2.2830 h1        1 MOL      0.110886
    130 H60         4.5620   -3.9360   -2.4230 h1        1 MOL      0.110886
    131 H61         3.0890   -1.6180   -2.1760 ho        1 MOL      0.276781
    132 N12         6.2520   -4.2680   -0.5000 n         1 MOL     -0.364522
    133 C43         7.6900   -3.9920   -0.2920 c3        1 MOL      0.046995
    134 C44         8.1080   -2.6830   -0.9660 c         1 MOL      0.389364
    135 O18         9.1000   -2.0810   -0.5140 o         1 MOL     -0.502002
    136 C45         8.4650   -5.1470   -0.9640 c3        1 MOL     -0.153229
    137 H62         5.9780   -5.1800   -0.8280 hn        1 MOL      0.266042
    138 H63         7.9440   -3.8950    0.7720 h1        1 MOL      0.098295
    139 H64         8.2070   -5.2410   -2.0160 hc        1 MOL      0.058700
    140 H65         9.5500   -5.0460   -0.9600 hc        1 MOL      0.058700
    141 H66         8.2450   -6.0990   -0.4690 hc        1 MOL      0.058700
    142 N13         7.4380   -2.2590   -2.0180 n         1 MOL     -0.252495
    143 C46         7.7690   -1.0680   -2.7280 c3        1 MOL      0.111153
    144 C47         7.4810    0.2290   -1.9450 c         1 MOL      0.352690
    145 O19         8.3930    1.0480   -1.6540 o         1 MOL     -0.491225
    146 C48         7.2180   -1.0930   -4.1670 c3        1 MOL     -0.164780
    147 H67         6.6860   -2.8390   -2.3450 hn        1 MOL      0.218726
    148 H68         8.8390   -1.0600   -2.8840 h1        1 MOL      0.062255
    149 H69         7.5500   -0.1880   -4.6810 hc        1 MOL      0.043119
    150 H70         7.5440   -1.9520   -4.7460 hc        1 MOL      0.043119
    151 H71         6.1350   -1.0660   -4.0610 hc        1 MOL      0.043119
    152 N14         6.1980    0.2830   -1.5060 n         1 MOL     -0.158356
    153 C49         5.5160    1.4650   -0.9070 c3        1 MOL     -0.103153
    154 C50         5.9390    1.7840    0.5420 c         1 MOL      0.538359
    155 O20         5.9860    2.9380    0.8530 o         1 MOL     -0.581896
    156 C51         4.0170    1.4420   -0.9030 c3        1 MOL     -0.145755
    157 C52         3.2390    0.6740    0.1680 c3        1 MOL      0.051460
    158 C53         1.8970    0.3480   -0.5290 c         1 MOL      0.611659
    159 O21         1.7920   -0.7810   -1.0650 o         1 MOL     -0.619854
    160 O22         0.9140    1.0960   -0.3230 o         1 MOL     -0.619854
    161 H72         5.5980   -0.5080   -1.6560 hn        1 MOL      0.162176
    162 H73         5.7630    2.3560   -1.4770 h1        1 MOL      0.104235
    163 H74         3.7910    0.9890   -1.8670 hc        1 MOL      0.046395
    164 H75         3.6370    2.4620   -0.8620 hc        1 MOL      0.046395
    165 H76         3.1480    1.1500    1.1500 hc        1 MOL     -0.050894
    166 H77         3.6740   -0.3040    0.3570 hc        1 MOL     -0.050894
    167 N15         6.3220    0.7260    1.2500 n         1 MOL     -0.111360
    168 C54         7.0930    0.8420    2.4880 c3        1 MOL     -0.408448
    169 H78         6.7140    1.6800    3.0740 h1        1 MOL      0.143505
    170 H79         6.9960   -0.0780    3.0650 h1        1 MOL      0.143505
    171 H80         8.1430    1.0130    2.2480 h1        1 MOL      0.143505
    172 H81         6.2120   -0.1820    0.8420 hn        1 MOL      0.214576
    173 Ca1        -0.9920   -0.1090   -1.3610 Ca        1 MOL      1.769236
    174 O23         0.4290    0.2820   -3.7120 oh        1 MOL     -0.892500
    175 H82         0.1020    0.5310   -4.5700 ho        1 MOL      0.421576
    176 H83         1.2690   -0.1600   -3.8920 ho        1 MOL      0.421576
    177 O24        -0.1680   -2.8460   -1.7250 oh        1 MOL     -0.892500
    178 H84         0.2510   -2.8430   -2.5900 ho        1 MOL      0.421576
    179 H85         0.0710   -3.6880   -1.3450 ho        1 MOL      0.421576
@<TRIPOS>BOND
     1    1    2 1   
     2    1    4 1   
     3    1    5 1   
     4    1    6 1   
     5    2    3 2   
     6    2    7 1   
     7    7    8 1   
     8    7   15 1   
     9    8    9 1   
    10    8   11 1   
    11    8   16 1   
    12    9   10 2   
    13    9   19 1   
    14   11   12 1   
    15   11   17 1   
    16   11   18 1   
    17   12   13 1   
    18   12   14 1   
    19   19   20 1   
    20   19   28 1   
    21   20   21 1   
    22   20   23 1   
    23   20   29 1   
    24   21   22 2   
    25   21   41 1   
    26   23   24 1   
    27   23   30 1   
    28   23   31 1   
    29   24   25 1   
    30   24   32 1   
    31   24   33 1   
    32   25   26 1   
    33   25   34 1   
    34   25   35 1   
    35   26   27 1   
    36   26   36 1   
    37   26   37 1   
    38   27   38 1   
    39   27   39 1   
    40   27   40 1   
    41   41   42 1   
    42   41   49 1   
    43   42   43 1   
    44   42   45 1   
    45   42   50 1   
    46   43   44 2   
    47   43   53 1   
    48   45   46 1   
    49   45   51 1   
    50   45   52 1   
    51   46   47 1   
    52   46   48 1   
    53   53   54 1   
    54   53   57 1   
    55   54   55 1   
    56   54   58 1   
    57   54   59 1   
    58   55   56 2   
    59   55   60 1   
    60   60   61 1   
    61   60   68 1   
    62   61   62 1   
    63   61   64 1   
    64   61   69 1   
    65   62   63 2   
    66   62   74 1   
    67   64   65 1   
    68   64   70 1   
    69   64   71 1   
    70   65   66 1   
    71   65   67 2   
    72   66   72 1   
    73   66   73 1   
    74   74   75 1   
    75   74   78 1   
    76   75   76 1   
    77   75   79 1   
    78   75   80 1   
    79   76   77 2   
    80   76   81 1   
    81   81   82 1   
    82   81   93 1   
    83   82   83 1   
    84   82   85 1   
    85   82   94 1   
    86   83   84 2   
    87   83  102 1   
    88   85   86 1   
    89   85   95 1   
    90   85   96 1   
    91   86   87 ar  
    92   86   88 ar  
    93   87   89 ar  
    94   87   97 1   
    95   88   90 ar  
    96   88   98 1   
    97   89   91 ar  
    98   89   99 1   
    99   90   91 ar  
   100   90  100 1   
   101   91   92 1   
   102   92  101 1   
   103  102  103 1   
   104  102  110 1   
   105  103  104 1   
   106  103  106 1   
   107  103  111 1   
   108  104  105 2   
   109  104  121 1   
   110  106  107 1   
   111  106  108 1   
   112  106  112 1   
   113  107  109 1   
   114  107  113 1   
   115  107  114 1   
   116  108  115 1   
   117  108  116 1   
   118  108  117 1   
   119  109  118 1   
   120  109  119 1   
   121  109  120 1   
   122  121  122 1   
   123  121  127 1   
   124  122  123 1   
   125  122  125 1   
   126  122  128 1   
   127  123  124 2   
   128  123  132 1   
   129  125  126 1   
   130  125  129 1   
   131  125  130 1   
   132  126  131 1   
   133  132  133 1   
   134  132  137 1   
   135  133  134 1   
   136  133  136 1   
   137  133  138 1   
   138  134  135 2   
   139  134  142 1   
   140  136  139 1   
   141  136  140 1   
   142  136  141 1   
   143  142  143 1   
   144  142  147 1   
   145  143  144 1   
   146  143  146 1   
   147  143  148 1   
   148  144  145 2   
   149  144  152 1   
   150  146  149 1   
   151  146  150 1   
   152  146  151 1   
   153  152  153 1   
   154  152  161 1   
   155  153  154 1   
   156  153  156 1   
   157  153  162 1   
   158  154  155 2   
   159  154  167 1   
   160  156  157 1   
   161  156  163 1   
   162  156  164 1   
   163  157  158 1   
   164  157  165 1   
   165  157  166 1   
   166  158  159 1   
   167  158  160 1   
   168  167  168 1   
   169  167  172 1   
   170  168  169 1   
   171  168  170 1   
   172  168  171 1   
   173  174  175 1   
   174  174  176 1   
   175  177  178 1   
   176  177  179 1   
@<TRIPOS>SUBSTRUCTURE
     1 MOL         1 TEMP              0 ****  ****    0 ROOT
