@<TRIPOS>MOLECULE
MOL
  175   173     1     0     0
SMALL
resp


@<TRIPOS>ATOM
      1 C1          0.1570    2.2620    6.0400 c3        1 MOL     -0.487281
      2 C2         -0.2490    2.2150    4.5000 c         1 MOL      0.758038
      3 O1          0.3550    2.9010    3.7360 o         1 MOL     -0.556289
      4 H1          0.8080    3.1180    6.2170 hc        1 MOL      0.116015
      5 H2         -0.7410    2.3570    6.6510 hc        1 MOL      0.116015
      6 H3          0.6830    1.3450    6.3050 hc        1 MOL      0.116015
      7 N1         -1.3230    1.4110    4.2390 n         1 MOL     -0.694867
      8 C3         -2.0120    1.4210    2.9650 c3        1 MOL      0.385461
      9 C4         -2.4750    2.8680    2.5650 c         1 MOL      0.393685
     10 O2         -3.2000    3.5310    3.3120 o         1 MOL     -0.571303
     11 C5         -3.2330    0.4370    2.9790 c3        1 MOL     -0.290142
     12 C6         -3.9310    0.4360    1.5880 c         1 MOL      0.977863
     13 O3         -3.3160    0.8840    0.5720 o         1 MOL     -0.764931
     14 O4         -5.0710   -0.1290    1.5680 o         1 MOL     -0.764931
     15 H4         -1.6210    0.8200    4.9970 hn        1 MOL      0.330150
     16 H5         -1.3040    1.0920    2.2070 h1        1 MOL     -0.064011
     17 H6         -3.9570    0.8120    3.6860 hc        1 MOL      0.034763
     18 H7         -2.9520   -0.6020    3.1060 hc        1 MOL      0.034763
     19 N2         -2.0300    3.3660    1.3830 n         1 MOL     -0.280799
     20 C7         -2.0420    4.8090    1.0400 c3        1 MOL      0.128128
     21 C8         -3.0780    5.1660    0.0360 c         1 MOL      0.280637
     22 O5         -3.3920    6.3620   -0.1850 o         1 MOL     -0.567249
     23 C9         -0.6660    5.3040    0.6460 c3        1 MOL     -0.231671
     24 H8         -1.5350    2.6830    0.8270 hn        1 MOL      0.484030
     25 H9         -2.3670    5.3410    1.9380 h1        1 MOL      0.061514
     26 H10        -0.3280    4.5970   -0.1170 hc        1 MOL      0.060078
     27 H11        -0.6900    6.3400    0.3080 hc        1 MOL      0.060078
     28 H12         0.0750    5.0640    1.4070 hc        1 MOL      0.060078
     29 N3         -3.6430    4.2350   -0.7180 n         1 MOL      0.069466
     30 C10        -4.8360    4.2790   -1.5760 c3        1 MOL      0.012597
     31 C11        -6.0260    3.4160   -1.1160 c         1 MOL      0.458427
     32 O6         -7.1270    3.6370   -1.5980 o         1 MOL     -0.544256
     33 C12        -4.4960    3.9830   -3.0160 c3        1 MOL     -0.177781
     34 C13        -3.4000    2.8940   -3.2050 c         1 MOL      0.614404
     35 O7         -3.5640    1.8010   -2.5980 o         1 MOL     -0.658440
     36 O8         -2.3750    3.1490   -3.8800 o         1 MOL     -0.658440
     37 H13        -3.1780    3.3580   -0.5650 hn        1 MOL     -0.037557
     38 H14        -5.3090    5.2620   -1.5440 h1        1 MOL      0.077824
     39 H15        -4.1090    4.8930   -3.4840 hc        1 MOL      0.038698
     40 H16        -5.3990    3.6520   -3.5350 hc        1 MOL      0.038698
     41 N4         -5.9030    2.6050   -0.0630 n         1 MOL     -0.292182
     42 C14        -7.1150    1.9700    0.5470 c3        1 MOL      0.049121
     43 C15        -7.7700    0.7910   -0.1760 c         1 MOL      0.387300
     44 O9         -8.9470    0.4600    0.0210 o         1 MOL     -0.571262
     45 H17        -5.0010    2.4020    0.3230 hn        1 MOL      0.092978
     46 H18        -7.8780    2.7100    0.8120 h1        1 MOL      0.055983
     47 H19        -6.7980    1.5580    1.5050 h1        1 MOL      0.055983
     48 N5         -6.8930   -0.0040   -0.7970 n         1 MOL     -0.074064
     49 C16        -7.2400   -1.2990   -1.4260 c3        1 MOL     -0.044305
     50 C17        -7.1140   -2.5320   -0.6040 c         1 MOL      0.488453
     51 O10        -7.4940   -3.5940   -1.0290 o         1 MOL     -0.574862
     52 C18        -6.4010   -1.4460   -2.7610 c3        1 MOL     -0.304939
     53 C19        -4.9400   -1.6040   -2.5030 c         1 MOL      0.624717
     54 N6         -4.2180   -1.8320   -3.5140 n         1 MOL     -0.700413
     55 O11        -4.3450   -1.3620   -1.4540 o         1 MOL     -0.486425
     56 H20        -5.9440    0.3420   -0.7920 hn        1 MOL      0.089587
     57 H21        -8.3040   -1.3090   -1.6690 h1        1 MOL      0.107175
     58 H22        -6.5330   -0.5810   -3.4060 hc        1 MOL      0.099951
     59 H23        -6.7170   -2.3740   -3.2420 hc        1 MOL      0.099951
     60 H24        -4.7490   -2.0470   -4.3470 hn        1 MOL      0.318267
     61 H25        -3.2110   -1.9060   -3.4660 hn        1 MOL      0.318267
     62 N7         -6.5570   -2.4070    0.5550 n         1 MOL     -0.250902
     63 C20        -6.3490   -3.4300    1.5810 c3        1 MOL     -0.123681
     64 C21        -5.0450   -4.2800    1.3070 c         1 MOL      0.532743
     65 O12        -5.0770   -5.4450    1.7030 o         1 MOL     -0.567947
     66 H26        -6.2450   -1.4750    0.7810 hn        1 MOL      0.261071
     67 H27        -7.1690   -4.1320    1.7230 h1        1 MOL      0.092832
     68 H28        -6.1340   -2.9680    2.5470 h1        1 MOL      0.092832
     69 N8         -3.9960   -3.7060    0.6370 n         1 MOL     -0.251563
     70 C22        -2.6430   -4.2470    0.5790 c3        1 MOL     -0.044736
     71 C23        -1.5570   -3.2160    0.7350 c         1 MOL      0.445034
     72 O13        -1.7780   -1.9570    0.5150 o         1 MOL     -0.524517
     73 C24        -2.2990   -4.9520   -0.7500 c3        1 MOL      0.293194
     74 C25        -2.9990   -6.2850   -0.8070 c3        1 MOL     -0.384350
     75 O14        -2.8670   -4.2390   -1.7830 oh        1 MOL     -0.571228
     76 H29        -4.1270   -2.7240    0.4180 hn        1 MOL      0.161937
     77 H30        -2.5230   -4.9170    1.4220 h1        1 MOL      0.077834
     78 H31        -1.2370   -5.1460   -0.9180 h1        1 MOL      0.068075
     79 H32        -3.7880   -4.4880   -1.6530 ho        1 MOL      0.375485
     80 H33        -2.6560   -6.9810   -0.0500 hc        1 MOL      0.093140
     81 H34        -4.0200   -6.0040   -0.5500 hc        1 MOL      0.093140
     82 H35        -3.0200   -6.7360   -1.8040 hc        1 MOL      0.093140
     83 N9         -0.3980   -3.7230    1.1690 n         1 MOL     -0.448968
     84 C26         0.7270   -2.8900    1.4380 c3        1 MOL      0.020219
     85 C27         1.6420   -3.0210    0.2720 c         1 MOL      0.510978
     86 O15         2.2270   -4.0860    0.1120 o         1 MOL     -0.582757
     87 C28         1.3020   -3.2080    2.8670 c3        1 MOL      0.203288
     88 C29         0.2330   -3.1620    3.9920 c3        1 MOL      0.118161
     89 C30         2.4780   -2.2610    3.0210 c3        1 MOL     -0.233568
     90 C31         0.9250   -3.6170    5.3650 c3        1 MOL     -0.346333
     91 H36        -0.3180   -4.7190    1.3270 hn        1 MOL      0.263906
     92 H37         0.3250   -1.8770    1.5630 h1        1 MOL      0.081216
     93 H38         1.6910   -4.2180    2.7460 hc        1 MOL     -0.032233
     94 H39        -0.5890   -3.8540    3.7850 hc        1 MOL     -0.010702
     95 H40        -0.1230   -2.1400    4.0900 hc        1 MOL     -0.010702
     96 H41         2.2710   -1.2230    2.7440 hc        1 MOL      0.048510
     97 H42         2.7910   -2.3460    4.0580 hc        1 MOL      0.048510
     98 H43         3.2290   -2.5700    2.2920 hc        1 MOL      0.048510
     99 H44         1.3110   -4.6150    5.1550 hc        1 MOL      0.077576
    100 H45         1.5770   -2.8570    5.8120 hc        1 MOL      0.077576
    101 H46         0.1090   -3.6730    6.0760 hc        1 MOL      0.077576
    102 N10         1.9110   -1.8840   -0.4110 n         1 MOL     -0.197705
    103 C32         2.9770   -1.7380   -1.4520 c3        1 MOL      0.016246
    104 C33         4.3780   -1.4700   -0.9620 c         1 MOL      0.496794
    105 O16         4.4620   -1.2130    0.2700 o         1 MOL     -0.400967
    106 C34         2.6530   -0.5970   -2.3610 c3        1 MOL     -0.312037
    107 C35         1.3330   -0.5940   -3.0260 c         1 MOL      0.877688
    108 O17         1.0380   -1.5020   -3.8160 o         1 MOL     -0.741266
    109 O18         0.5140    0.3580   -2.8860 o         1 MOL     -0.741266
    110 H47         1.5110   -1.0060   -0.0840 hn        1 MOL      0.078039
    111 H48         2.9180   -2.6620   -2.0290 h1        1 MOL      0.060249
    112 H49         3.3620   -0.6720   -3.1790 hc        1 MOL      0.077994
    113 H50         2.8230    0.3120   -1.7800 hc        1 MOL      0.077994
    114 N11         5.5090   -1.5030   -1.6960 n         1 MOL     -0.650116
    115 C36         6.8560   -1.2360   -1.1590 c3        1 MOL      0.448633
    116 C37         7.1250    0.2010   -0.5890 c         1 MOL      0.254442
    117 O19         7.6910    0.2500    0.4920 o         1 MOL     -0.449192
    118 C38         7.8750   -1.5650   -2.2490 c3        1 MOL     -0.266537
    119 C39         9.3640   -1.3770   -1.8920 ca        1 MOL      0.096288
    120 C40         9.9340   -2.1150   -0.7900 ca        1 MOL     -0.161324
    121 C41        10.1320   -0.4280   -2.5550 ca        1 MOL     -0.161324
    122 C42        11.2500   -1.9140   -0.5370 ca        1 MOL     -0.124798
    123 C43        11.5120   -0.2460   -2.2800 ca        1 MOL     -0.124798
    124 C44        12.0870   -1.0090   -1.2690 ca        1 MOL     -0.081893
    125 H51         5.4440   -1.9200   -2.6110 hn        1 MOL      0.324381
    126 H52         7.0710   -2.0080   -0.4170 h1        1 MOL      0.039560
    127 H53         7.6610   -0.8920   -3.0840 hc        1 MOL      0.063774
    128 H54         7.7770   -2.6310   -2.4360 hc        1 MOL      0.063774
    129 H55         9.3700   -2.8360   -0.2170 ha        1 MOL      0.133805
    130 H56         9.7120    0.2330   -3.2970 ha        1 MOL      0.133805
    131 H57        11.6880   -2.4630    0.2780 ha        1 MOL      0.108668
    132 H58        12.0600    0.4820   -2.8560 ha        1 MOL      0.108668
    133 H59        13.1670   -0.9950   -1.1250 ha        1 MOL      0.088287
    134 N12         6.6240    1.3200   -1.2080 n         1 MOL     -0.076304
    135 C45         6.6150    2.6780   -0.5770 c3        1 MOL      0.069719
    136 C46         5.7370    2.7740    0.6810 c         1 MOL      0.134134
    137 O20         6.1510    3.4260    1.7040 o         1 MOL     -0.475990
    138 C47         6.1370    3.6490   -1.6710 c3        1 MOL     -0.047552
    139 C48         6.1810    2.8930   -3.0260 c3        1 MOL     -0.104124
    140 C49         6.1430    1.4500   -2.6000 c3        1 MOL      0.095139
    141 H60         7.6420    3.0040   -0.4290 h1        1 MOL      0.067074
    142 H61         5.0590    3.8090   -1.6340 hc        1 MOL      0.045006
    143 H62         6.6780    4.5910   -1.8030 hc        1 MOL      0.045006
    144 H63         5.3430    3.0700   -3.7010 hc        1 MOL      0.042808
    145 H64         7.1470    2.9810   -3.5100 hc        1 MOL      0.042808
    146 H65         5.1390    1.0520   -2.7280 h1        1 MOL     -0.011147
    147 H66         6.8200    1.0230   -3.3340 h1        1 MOL     -0.011147
    148 N13         4.6560    2.0340    0.7260 n         1 MOL     -0.074595
    149 C50         3.8410    1.8680    1.9630 c3        1 MOL     -0.048910
    150 C51         4.4430    0.9120    3.0190 c         1 MOL      0.452034
    151 O21         4.3460    1.2270    4.1910 o         1 MOL     -0.582634
    152 C52         2.4640    1.2960    1.6150 c3        1 MOL      0.085010
    153 C53         1.6700    2.1900    0.6020 c3        1 MOL     -0.560548
    154 C54         0.4050    1.5170    0.1120 c         1 MOL      0.932603
    155 O22         0.2470    0.2870    0.1810 o         1 MOL     -0.769368
    156 O23        -0.4410    2.0700   -0.5470 o         1 MOL     -0.769368
    157 H67         4.3160    1.7910   -0.2000 hn        1 MOL      0.264145
    158 H68         3.7520    2.8540    2.4150 h1        1 MOL      0.111260
    159 H69         1.8470    1.1330    2.4960 hc        1 MOL      0.039599
    160 H70         2.5970    0.2850    1.2480 hc        1 MOL      0.039599
    161 H71         2.2130    2.4140   -0.3090 hc        1 MOL      0.123093
    162 H72         1.4540    3.0950    1.1700 hc        1 MOL      0.123093
    163 N14         5.2470   -0.0120    2.6190 n         1 MOL      0.059812
    164 C55         6.0320   -0.8620    3.5540 c3        1 MOL     -0.135827
    165 H73         6.6470   -0.2280    4.1920 h1        1 MOL      0.055145
    166 H74         5.3510   -1.4470    4.1720 h1        1 MOL      0.055145
    167 H75         6.6730   -1.5340    2.9830 h1        1 MOL      0.055145
    168 H76         5.2030   -0.2090    1.6310 hn        1 MOL     -0.047989
    169 Ca1        -1.8970    0.1970   -1.4580 Ca        1 MOL      1.736863
    170 O24        -2.0350    0.2110   -4.2020 oh        1 MOL     -0.789513
    171 H77        -2.5110    0.9490   -4.5850 ho        1 MOL      0.378844
    172 H78        -1.4710   -0.0990   -4.9070 ho        1 MOL      0.378844
    173 O25        -1.2300   -2.1920   -2.3750 oh        1 MOL     -0.789513
    174 H79        -1.6090   -3.0530   -2.5630 ho        1 MOL      0.378844
    175 H80        -0.4560   -2.1270   -2.9360 ho        1 MOL      0.378844
@<TRIPOS>BOND
     1    1    2 1   
     2    1    4 1   
     3    1    5 1   
     4    1    6 1   
     5    2    3 2   
     6    2    7 1   
     7    7    8 1   
     8    7   15 1   
     9    8    9 1   
    10    8   11 1   
    11    8   16 1   
    12    9   10 2   
    13    9   19 1   
    14   11   12 1   
    15   11   17 1   
    16   11   18 1   
    17   12   13 1   
    18   12   14 1   
    19   19   20 1   
    20   19   24 1   
    21   20   21 1   
    22   20   23 1   
    23   20   25 1   
    24   21   22 2   
    25   21   29 1   
    26   23   26 1   
    27   23   27 1   
    28   23   28 1   
    29   29   30 1   
    30   29   37 1   
    31   30   31 1   
    32   30   33 1   
    33   30   38 1   
    34   31   32 2   
    35   31   41 1   
    36   33   34 1   
    37   33   39 1   
    38   33   40 1   
    39   34   35 1   
    40   34   36 1   
    41   41   42 1   
    42   41   45 1   
    43   42   43 1   
    44   42   46 1   
    45   42   47 1   
    46   43   44 2   
    47   43   48 1   
    48   48   49 1   
    49   48   56 1   
    50   49   50 1   
    51   49   52 1   
    52   49   57 1   
    53   50   51 2   
    54   50   62 1   
    55   52   53 1   
    56   52   58 1   
    57   52   59 1   
    58   53   54 1   
    59   53   55 2   
    60   54   60 1   
    61   54   61 1   
    62   62   63 1   
    63   62   66 1   
    64   63   64 1   
    65   63   67 1   
    66   63   68 1   
    67   64   65 2   
    68   64   69 1   
    69   69   70 1   
    70   69   76 1   
    71   70   71 1   
    72   70   73 1   
    73   70   77 1   
    74   71   72 2   
    75   71   83 1   
    76   73   74 1   
    77   73   75 1   
    78   73   78 1   
    79   74   80 1   
    80   74   81 1   
    81   74   82 1   
    82   75   79 1   
    83   83   84 1   
    84   83   91 1   
    85   84   85 1   
    86   84   87 1   
    87   84   92 1   
    88   85   86 2   
    89   85  102 1   
    90   87   88 1   
    91   87   89 1   
    92   87   93 1   
    93   88   90 1   
    94   88   94 1   
    95   88   95 1   
    96   89   96 1   
    97   89   97 1   
    98   89   98 1   
    99   90   99 1   
   100   90  100 1   
   101   90  101 1   
   102  102  103 1   
   103  102  110 1   
   104  103  104 1   
   105  103  106 1   
   106  103  111 1   
   107  104  105 2   
   108  104  114 1   
   109  106  107 1   
   110  106  112 1   
   111  106  113 1   
   112  107  108 1   
   113  107  109 1   
   114  114  115 1   
   115  114  125 1   
   116  115  116 1   
   117  115  118 1   
   118  115  126 1   
   119  116  117 2   
   120  116  134 1   
   121  118  119 1   
   122  118  127 1   
   123  118  128 1   
   124  119  120 ar  
   125  119  121 ar  
   126  120  122 ar  
   127  120  129 1   
   128  121  123 ar  
   129  121  130 1   
   130  122  124 ar  
   131  122  131 1   
   132  123  124 ar  
   133  123  132 1   
   134  124  133 1   
   135  134  135 1   
   136  134  140 1   
   137  135  136 1   
   138  135  138 1   
   139  135  141 1   
   140  136  137 2   
   141  136  148 1   
   142  138  139 1   
   143  138  142 1   
   144  138  143 1   
   145  139  140 1   
   146  139  144 1   
   147  139  145 1   
   148  140  146 1   
   149  140  147 1   
   150  148  149 1   
   151  148  157 1   
   152  149  150 1   
   153  149  152 1   
   154  149  158 1   
   155  150  151 2   
   156  150  163 1   
   157  152  153 1   
   158  152  159 1   
   159  152  160 1   
   160  153  154 1   
   161  153  161 1   
   162  153  162 1   
   163  154  155 1   
   164  154  156 1   
   165  163  164 1   
   166  163  168 1   
   167  164  165 1   
   168  164  166 1   
   169  164  167 1   
   170  170  171 1   
   171  170  172 1   
   172  173  174 1   
   173  173  175 1   
@<TRIPOS>SUBSTRUCTURE
     1 MOL         1 TEMP              0 ****  ****    0 ROOT
