@<TRIPOS>MOLECULE
MOL
  189   185     1     0     0
SMALL
resp


@<TRIPOS>ATOM
      1 C1          0.2640   -3.7640    5.8590 c3        1 MOL     -0.449906
      2 C2          0.9250   -3.3080    4.5830 c         1 MOL      0.691789
      3 O1          0.8880   -2.0970    4.2790 o         1 MOL     -0.611605
      4 H1          0.7000   -3.2320    6.7050 hc        1 MOL      0.113624
      5 H2         -0.8050   -3.5540    5.8100 hc        1 MOL      0.113624
      6 H3          0.4190   -4.8350    5.9860 hc        1 MOL      0.113624
      7 N1          1.3890   -4.2520    3.7990 n         1 MOL     -0.514064
      8 C3          2.0980   -3.8350    2.5250 c3        1 MOL      0.032140
      9 C4          2.2250   -4.9180    1.5180 c         1 MOL      0.493299
     10 O2          2.4740   -6.0630    1.9030 o         1 MOL     -0.602250
     11 C5          3.4900   -3.2970    2.9180 c3        1 MOL     -0.170364
     12 C6          4.3050   -2.6830    1.7680 c         1 MOL      0.646647
     13 O3          3.6490   -2.1490    0.8430 o         1 MOL     -0.642602
     14 O4          5.5180   -2.6650    1.8430 o         1 MOL     -0.642602
     15 H4          1.4330   -5.2050    4.1570 hn        1 MOL      0.324159
     16 H5          1.5860   -3.0350    2.0010 h1        1 MOL      0.052829
     17 H6          4.1400   -3.9310    3.5280 hc        1 MOL      0.051928
     18 H7          3.3580   -2.4950    3.6440 hc        1 MOL      0.051928
     19 N2          2.0420   -4.5990    0.2330 n         1 MOL     -0.097484
     20 C7          2.1500   -5.5910   -0.8960 c3        1 MOL     -0.252392
     21 C8          3.3070   -5.1790   -1.8700 c         1 MOL      0.525509
     22 O5          3.6600   -5.9910   -2.6890 o         1 MOL     -0.573692
     23 C9          0.7790   -5.7920   -1.5900 c3        1 MOL      0.296301
     24 C10         0.2440   -4.5880   -2.3940 c3        1 MOL     -0.377396
     25 C11        -0.0750   -6.4080   -0.4310 c3        1 MOL     -0.144874
     26 C12        -1.1970   -4.7040   -2.8150 c3        1 MOL     -0.152256
     27 H8          1.8460   -3.6220    0.0830 hn        1 MOL      0.194239
     28 H9          2.4370   -6.5650   -0.5120 h1        1 MOL      0.130379
     29 H10         0.9070   -6.6290   -2.2660 hc        1 MOL     -0.049221
     30 H11         0.9550   -4.3180   -3.1750 hc        1 MOL      0.176241
     31 H12         0.1670   -3.7130   -1.7490 hc        1 MOL      0.176241
     32 H13        -1.0460   -6.7150   -0.8400 hc        1 MOL      0.019056
     33 H14         0.4270   -7.2070    0.1030 hc        1 MOL      0.019056
     34 H15        -0.2510   -5.6080    0.2910 hc        1 MOL      0.019056
     35 H16        -1.2790   -5.6070   -3.4120 hc        1 MOL      0.062794
     36 H17        -1.8490   -4.9110   -1.9630 hc        1 MOL      0.062794
     37 H18        -1.4040   -3.9130   -3.5290 hc        1 MOL      0.062794
     38 N3          3.9670   -4.0080   -1.7790 n         1 MOL     -0.352746
     39 C13         4.7240   -3.4100   -2.8440 c3        1 MOL      0.080837
     40 C14         6.0390   -2.7820   -2.3210 c         1 MOL      0.366829
     41 O6          6.9710   -2.7150   -3.1320 o         1 MOL     -0.546939
     42 C15         3.9570   -2.4570   -3.7180 c3        1 MOL     -0.182266
     43 C16         3.0260   -1.4110   -3.1020 c         1 MOL      0.651019
     44 O7          3.1410   -1.0250   -1.9130 o         1 MOL     -0.676478
     45 O8          2.0890   -1.0040   -3.8120 o         1 MOL     -0.676478
     46 H19         3.6680   -3.4310   -1.0120 hn        1 MOL      0.182764
     47 H20         4.9960   -4.2190   -3.5220 h1        1 MOL      0.088685
     48 H21         3.2450   -3.0830   -4.2440 hc        1 MOL      0.045952
     49 H22         4.6180   -1.9930   -4.4500 hc        1 MOL      0.045952
     50 N4          6.2080   -2.3570   -1.0560 n         1 MOL     -0.129684
     51 C17         7.4560   -1.5960   -0.7070 c3        1 MOL     -0.165624
     52 C18         7.5490   -0.1880   -1.3640 c         1 MOL      0.468438
     53 O9          8.5560    0.4720   -1.4600 o         1 MOL     -0.578935
     54 H23         5.4130   -2.3370   -0.4160 hn        1 MOL      0.084905
     55 H24         8.3150   -2.1800   -1.0540 h1        1 MOL      0.085016
     56 H25         7.4960   -1.4390    0.3720 h1        1 MOL      0.085016
     57 N5          6.3630    0.3370   -1.6730 n         1 MOL     -0.145911
     58 C19         6.2950    1.7060   -2.3040 c3        1 MOL     -0.048076
     59 C20         6.6440    2.9180   -1.3310 c         1 MOL      0.526655
     60 O10         7.0870    3.9990   -1.7330 o         1 MOL     -0.550711
     61 C21         4.9770    1.8220   -3.1180 c3        1 MOL     -0.355698
     62 C22         3.7850    2.1880   -2.2520 c         1 MOL      0.814590
     63 O11         3.7960    1.9490   -1.0120 o         1 MOL     -0.716857
     64 O12         2.7720    2.7740   -2.7630 o         1 MOL     -0.716857
     65 H26         5.4760   -0.1420   -1.5520 hn        1 MOL      0.190615
     66 H27         7.1820    1.7590   -2.9310 h1        1 MOL      0.085705
     67 H28         4.8460    0.8860   -3.6400 hc        1 MOL      0.109000
     68 H29         5.1690    2.6150   -3.8480 hc        1 MOL      0.109000
     69 N6          6.4740    2.6280   -0.0030 n         1 MOL     -0.314901
     70 C23         6.8090    3.5650    1.0980 c3        1 MOL     -0.217020
     71 C24         5.6050    4.4920    1.4140 c         1 MOL      0.573938
     72 O13         5.8070    5.5180    2.0190 o         1 MOL     -0.604016
     73 H30         6.0190    1.7710    0.2890 hn        1 MOL      0.266917
     74 H31         7.6470    4.2150    0.8500 h1        1 MOL      0.108433
     75 H32         7.0880    2.9950    1.9810 h1        1 MOL      0.108433
     76 N7          4.3900    4.1350    1.0550 n         1 MOL     -0.285620
     77 C25         3.0280    4.7660    1.4280 c3        1 MOL     -0.053816
     78 C26         2.0380    3.6620    1.8110 c         1 MOL      0.428447
     79 O14         2.2530    2.5360    1.4350 o         1 MOL     -0.453817
     80 C27         2.3360    5.5200    0.2090 c3        1 MOL      0.151884
     81 C28         3.0680    6.7030   -0.3450 c3        1 MOL     -0.385963
     82 C29         2.2370    7.5340   -1.2180 c         1 MOL      0.765315
     83 N8          1.9990    7.2130   -2.4710 n         1 MOL     -0.832084
     84 O15         1.7880    8.6060   -0.8950 o         1 MOL     -0.632051
     85 H33         4.2900    3.2290    0.6070 hn        1 MOL      0.211438
     86 H34         3.1040    5.4420    2.2830 h1        1 MOL      0.084962
     87 H35         1.3080    5.8330    0.3770 hc        1 MOL      0.005087
     88 H36         2.2820    4.7940   -0.6100 hc        1 MOL      0.005087
     89 H37         3.7960    6.2730   -1.0330 hc        1 MOL      0.120568
     90 H38         3.5910    7.2340    0.4420 hc        1 MOL      0.120568
     91 H39         2.2180    6.2950   -2.8450 hn        1 MOL      0.368917
     92 H40         1.3920    7.8570   -2.9520 hn        1 MOL      0.368917
     93 N9          0.9400    3.9350    2.5650 n         1 MOL     -0.454984
     94 C30        -0.1710    2.9850    2.5980 c3        1 MOL     -0.027193
     95 C31        -1.3630    3.3600    1.6740 c         1 MOL      0.621018
     96 O16        -1.7750    4.5270    1.6240 o         1 MOL     -0.573051
     97 C32        -0.5540    2.6100    4.0560 c3        1 MOL      0.364805
     98 C33        -1.1220    3.7790    4.7860 c3        1 MOL     -0.359250
     99 C34        -1.3570    1.3290    4.1940 c3        1 MOL     -0.359250
    100 H41         0.8450    4.8350    3.0120 hn        1 MOL      0.286712
    101 H42         0.0910    2.0310    2.1470 h1        1 MOL      0.033769
    102 H43         0.3860    2.5210    4.6130 hc        1 MOL     -0.026188
    103 H44        -0.4220    4.5960    4.9530 hc        1 MOL      0.070743
    104 H45        -2.0050    4.1060    4.2350 hc        1 MOL      0.070743
    105 H46        -1.5350    3.4440    5.7380 hc        1 MOL      0.070743
    106 H47        -0.9590    0.5660    3.5340 hc        1 MOL      0.070743
    107 H48        -1.4400    0.9930    5.2330 hc        1 MOL      0.070743
    108 H49        -2.4350    1.3610    4.0120 hc        1 MOL      0.070743
    109 N10        -1.9780    2.3480    0.9860 n         1 MOL     -0.448523
    110 C35        -3.1750    2.5780    0.1080 c3        1 MOL      0.194089
    111 C36        -4.4600    1.9460    0.6430 c         1 MOL      0.139182
    112 O17        -4.3950    1.0920    1.5310 o         1 MOL     -0.277453
    113 C37        -2.8430    1.9220   -1.2570 c3        1 MOL     -0.387526
    114 C38        -4.0330    2.0730   -2.2060 c         1 MOL      0.669471
    115 N11        -4.0420    3.0490   -3.0710 n         1 MOL     -0.732412
    116 O18        -4.9260    1.2690   -2.2790 o         1 MOL     -0.458543
    117 H50        -1.6630    1.4020    1.1260 hn        1 MOL      0.277270
    118 H51        -3.3460    3.6530    0.0950 h1        1 MOL      0.033744
    119 H52        -2.6300    0.8630   -1.1360 hc        1 MOL      0.143833
    120 H53        -1.8990    2.2610   -1.6730 hc        1 MOL      0.143833
    121 H54        -3.3430    3.7630   -2.9310 hn        1 MOL      0.343012
    122 H55        -4.9090    3.1590   -3.5710 hn        1 MOL      0.343012
    123 N12        -5.6740    2.3360    0.3120 n         1 MOL     -0.099024
    124 C39        -6.8790    1.8670    0.9750 c3        1 MOL      0.002949
    125 C40        -7.0700    0.2700    0.8480 c         1 MOL      0.387824
    126 O19        -7.6690   -0.3780    1.7530 o         1 MOL     -0.566429
    127 C41        -8.1070    2.6020    0.3880 c3        1 MOL     -0.275488
    128 C42        -8.4170    2.2450   -1.0240 ca        1 MOL      0.150546
    129 C43        -9.2940    1.1760   -1.2010 ca        1 MOL     -0.248075
    130 C44        -7.8190    2.9090   -2.0890 ca        1 MOL     -0.248075
    131 C45        -9.6200    0.7250   -2.5200 ca        1 MOL     -0.253697
    132 C46        -8.2050    2.4980   -3.4140 ca        1 MOL     -0.253697
    133 C47        -9.0960    1.4080   -3.6250 ca        1 MOL      0.326900
    134 O20        -9.3210    1.0000   -4.8990 oh        1 MOL     -0.493212
    135 H56        -5.7190    2.9760   -0.4670 hn        1 MOL      0.118821
    136 H57        -6.7790    2.1540    2.0180 h1        1 MOL      0.083262
    137 H58        -7.8770    3.6670    0.3520 hc        1 MOL      0.093460
    138 H59        -9.0070    2.4230    0.9690 hc        1 MOL      0.093460
    139 H60        -9.8420    0.7520   -0.3680 ha        1 MOL      0.161653
    140 H61        -7.1930    3.7680   -1.9320 ha        1 MOL      0.161653
    141 H62       -10.3420   -0.0620   -2.6590 ha        1 MOL      0.150670
    142 H63        -7.6880    2.9480   -4.2390 ha        1 MOL      0.150670
    143 H64        -9.6490    0.0990   -4.8550 ho        1 MOL      0.381635
    144 N13        -6.5020   -0.3220   -0.1820 n         1 MOL     -0.049109
    145 C48        -6.4530   -1.7770   -0.3190 c3        1 MOL     -0.117553
    146 C49        -5.5290   -2.4430    0.7800 c         1 MOL      0.354444
    147 O21        -5.5080   -3.6730    0.9860 o         1 MOL     -0.522294
    148 C50        -6.2440   -2.3050   -1.7520 c3        1 MOL     -0.227608
    149 C51        -4.7910   -2.1110   -2.2650 c3        1 MOL     -0.139606
    150 C52        -4.7710   -2.6790   -3.7240 c         1 MOL      0.647534
    151 O22        -5.1060   -1.8820   -4.6930 o         1 MOL     -0.717388
    152 O23        -4.4410   -3.8760   -3.9910 o         1 MOL     -0.717388
    153 H65        -6.2110    0.2770   -0.9280 hn        1 MOL      0.274730
    154 H66        -7.4590   -2.1300   -0.0420 h1        1 MOL      0.084791
    155 H67        -6.9020   -1.8340   -2.4770 hc        1 MOL      0.100931
    156 H68        -6.3840   -3.3800   -1.6490 hc        1 MOL      0.100931
    157 H69        -4.0420   -2.7100   -1.7480 hc        1 MOL      0.043466
    158 H70        -4.3850   -1.0950   -2.2850 hc        1 MOL      0.043466
    159 N14        -4.5270   -1.7480    1.3250 n         1 MOL      0.034649
    160 C53        -3.5340   -2.3180    2.3260 c3        1 MOL     -0.088431
    161 C54        -4.1580   -1.9910    3.6460 c         1 MOL      0.395581
    162 O24        -4.1640   -2.7080    4.6350 o         1 MOL     -0.579208
    163 C55        -2.1640   -1.7970    2.1730 c3        1 MOL     -0.113702
    164 C56        -1.4140   -2.2400    0.8420 c3        1 MOL      0.102107
    165 C57        -0.1220   -1.4430    0.6180 c         1 MOL      0.642536
    166 O25        -0.0020   -0.2880    1.0010 o         1 MOL     -0.723826
    167 O26         0.8310   -1.9770    0.0570 o         1 MOL     -0.723826
    168 H71        -4.3410   -0.8150    0.9870 hn        1 MOL     -0.015370
    169 H72        -3.5500   -3.4040    2.2210 h1        1 MOL      0.090151
    170 H73        -1.5210   -2.1240    2.9880 hc        1 MOL      0.099325
    171 H74        -2.3110   -0.7210    2.2490 hc        1 MOL      0.099325
    172 H75        -2.0580   -2.1320   -0.0330 hc        1 MOL     -0.006210
    173 H76        -1.2370   -3.3130    0.7670 hc        1 MOL     -0.006210
    174 N15        -4.5850   -0.7650    3.8040 n         1 MOL      0.021168
    175 C58        -5.2490   -0.1510    4.9580 c3        1 MOL     -0.104908
    176 H77        -4.6760    0.7150    5.2870 h1        1 MOL      0.047547
    177 H78        -6.2520    0.1640    4.6740 h1        1 MOL      0.047547
    178 H79        -5.3110   -0.8750    5.7700 h1        1 MOL      0.047547
    179 H80        -4.4180   -0.1310    3.0370 hn        1 MOL     -0.006037
    180 Ca1         2.5280    0.0790    0.3390 Ca        1 MOL      1.762598
    181 O27         2.5500   -0.3010    3.0140 oh        1 MOL     -0.885222
    182 H81         2.6260    0.3930    3.6600 ho        1 MOL      0.416274
    183 H82         1.8600   -0.8680    3.3560 ho        1 MOL      0.416274
    184 O28         5.1870    0.1740    1.1870 oh        1 MOL     -0.885222
    185 H83         5.8990    0.4740    1.7540 ho        1 MOL      0.416274
    186 H84         5.2480   -0.7830    1.2080 ho        1 MOL      0.416274
    187 O29         0.9960    1.4250   -1.4650 oh        1 MOL     -0.885222
    188 H85         1.6920    1.9180   -1.8990 ho        1 MOL      0.416274
    189 H86         0.2900    1.3930   -2.1150 ho        1 MOL      0.416274
@<TRIPOS>BOND
     1    1    2 1   
     2    1    4 1   
     3    1    5 1   
     4    1    6 1   
     5    2    3 2   
     6    2    7 1   
     7    7    8 1   
     8    7   15 1   
     9    8    9 1   
    10    8   11 1   
    11    8   16 1   
    12    9   10 2   
    13    9   19 1   
    14   11   12 1   
    15   11   17 1   
    16   11   18 1   
    17   12   13 1   
    18   12   14 1   
    19   19   20 1   
    20   19   27 1   
    21   20   21 1   
    22   20   23 1   
    23   20   28 1   
    24   21   22 2   
    25   21   38 1   
    26   23   24 1   
    27   23   25 1   
    28   23   29 1   
    29   24   26 1   
    30   24   30 1   
    31   24   31 1   
    32   25   32 1   
    33   25   33 1   
    34   25   34 1   
    35   26   35 1   
    36   26   36 1   
    37   26   37 1   
    38   38   39 1   
    39   38   46 1   
    40   39   40 1   
    41   39   42 1   
    42   39   47 1   
    43   40   41 2   
    44   40   50 1   
    45   42   43 1   
    46   42   48 1   
    47   42   49 1   
    48   43   44 1   
    49   43   45 1   
    50   50   51 1   
    51   50   54 1   
    52   51   52 1   
    53   51   55 1   
    54   51   56 1   
    55   52   53 2   
    56   52   57 1   
    57   57   58 1   
    58   57   65 1   
    59   58   59 1   
    60   58   61 1   
    61   58   66 1   
    62   59   60 2   
    63   59   69 1   
    64   61   62 1   
    65   61   67 1   
    66   61   68 1   
    67   62   63 1   
    68   62   64 1   
    69   69   70 1   
    70   69   73 1   
    71   70   71 1   
    72   70   74 1   
    73   70   75 1   
    74   71   72 2   
    75   71   76 1   
    76   76   77 1   
    77   76   85 1   
    78   77   78 1   
    79   77   80 1   
    80   77   86 1   
    81   78   79 2   
    82   78   93 1   
    83   80   81 1   
    84   80   87 1   
    85   80   88 1   
    86   81   82 1   
    87   81   89 1   
    88   81   90 1   
    89   82   83 1   
    90   82   84 2   
    91   83   91 1   
    92   83   92 1   
    93   93   94 1   
    94   93  100 1   
    95   94   95 1   
    96   94   97 1   
    97   94  101 1   
    98   95   96 2   
    99   95  109 1   
   100   97   98 1   
   101   97   99 1   
   102   97  102 1   
   103   98  103 1   
   104   98  104 1   
   105   98  105 1   
   106   99  106 1   
   107   99  107 1   
   108   99  108 1   
   109  109  110 1   
   110  109  117 1   
   111  110  111 1   
   112  110  113 1   
   113  110  118 1   
   114  111  112 2   
   115  111  123 1   
   116  113  114 1   
   117  113  119 1   
   118  113  120 1   
   119  114  115 1   
   120  114  116 2   
   121  115  121 1   
   122  115  122 1   
   123  123  124 1   
   124  123  135 1   
   125  124  125 1   
   126  124  127 1   
   127  124  136 1   
   128  125  126 2   
   129  125  144 1   
   130  127  128 1   
   131  127  137 1   
   132  127  138 1   
   133  128  129 ar  
   134  128  130 ar  
   135  129  131 ar  
   136  129  139 1   
   137  130  132 ar  
   138  130  140 1   
   139  131  133 ar  
   140  131  141 1   
   141  132  133 ar  
   142  132  142 1   
   143  133  134 1   
   144  134  143 1   
   145  144  145 1   
   146  144  153 1   
   147  145  146 1   
   148  145  148 1   
   149  145  154 1   
   150  146  147 2   
   151  146  159 1   
   152  148  149 1   
   153  148  155 1   
   154  148  156 1   
   155  149  150 1   
   156  149  157 1   
   157  149  158 1   
   158  150  151 1   
   159  150  152 1   
   160  159  160 1   
   161  159  168 1   
   162  160  161 1   
   163  160  163 1   
   164  160  169 1   
   165  161  162 2   
   166  161  174 1   
   167  163  164 1   
   168  163  170 1   
   169  163  171 1   
   170  164  165 1   
   171  164  172 1   
   172  164  173 1   
   173  165  166 1   
   174  165  167 1   
   175  174  175 1   
   176  174  179 1   
   177  175  176 1   
   178  175  177 1   
   179  175  178 1   
   180  181  182 1   
   181  181  183 1   
   182  184  185 1   
   183  184  186 1   
   184  187  188 1   
   185  187  189 1   
@<TRIPOS>SUBSTRUCTURE
     1 MOL         1 TEMP              0 ****  ****    0 ROOT
