@<TRIPOS>MOLECULE
MOL
  189   185     1     0     0
SMALL
resp


@<TRIPOS>ATOM
      1 C1          0.1470    4.0250   -4.3720 c3        1 MOL     -0.340490
      2 C2          0.6700    3.4300   -3.0810 c         1 MOL      0.573501
      3 O1          0.0640    3.6420   -2.0520 o         1 MOL     -0.583301
      4 H1          0.9030    3.9250   -5.1510 hc        1 MOL      0.091791
      5 H2         -0.7580    3.4990   -4.6750 hc        1 MOL      0.091791
      6 H3         -0.0800    5.0810   -4.2210 hc        1 MOL      0.091791
      7 N1          1.7970    2.7930   -3.0720 n         1 MOL     -0.442840
      8 C3          2.4780    2.1110   -1.9350 c3        1 MOL      0.033192
      9 C4          3.3440    3.1050   -1.1020 c         1 MOL      0.397024
     10 O2          4.5760    3.0110   -1.0760 o         1 MOL     -0.420684
     11 C5          3.1580    0.9020   -2.5220 c3        1 MOL      0.057246
     12 C6          4.0130    0.0680   -1.5650 c         1 MOL      0.512626
     13 O3          3.6310   -0.0300   -0.3670 o         1 MOL     -0.596399
     14 O4          4.9320   -0.6380   -2.0100 o         1 MOL     -0.596399
     15 H4          2.1920    2.7890   -3.9950 hn        1 MOL      0.295246
     16 H5          1.7130    1.6720   -1.2920 h1        1 MOL      0.098607
     17 H6          3.7540    1.1840   -3.3850 hc        1 MOL     -0.021861
     18 H7          2.4320    0.2870   -3.0540 hc        1 MOL     -0.021861
     19 N2          2.6040    3.9810   -0.3560 n         1 MOL     -0.352359
     20 C7          3.2750    5.0970    0.4090 c3        1 MOL     -0.064053
     21 C8          4.2190    4.6610    1.5730 c         1 MOL      0.472119
     22 O5          5.1350    5.4620    1.8990 o         1 MOL     -0.556837
     23 C9          2.2160    6.1530    0.7530 c3        1 MOL     -0.205100
     24 C10         1.3340    6.6200   -0.4450 c3        1 MOL      0.557750
     25 C11         0.5760    7.8680   -0.0240 c3        1 MOL     -0.012107
     26 C12        -0.2610    8.3260   -1.2900 c3        1 MOL     -0.219619
     27 N3          0.6090    8.8750   -2.3620 n4        1 MOL     -0.280712
     28 H8          1.5870    3.9810   -0.4470 hn        1 MOL      0.276597
     29 H9          3.9600    5.5860   -0.2750 h1        1 MOL      0.092569
     30 H10         2.6730    7.0220    1.2150 hc        1 MOL      0.066849
     31 H11         1.5820    5.7500    1.5480 hc        1 MOL      0.066849
     32 H12         0.6770    5.8070   -0.7590 hc        1 MOL     -0.146018
     33 H13         2.0700    6.8770   -1.2110 hc        1 MOL     -0.146018
     34 H14         1.2330    8.7130    0.1730 hc        1 MOL      0.015496
     35 H15         0.0010    7.6790    0.8790 hc        1 MOL      0.015496
     36 H16        -0.8760    9.1670   -0.9870 hx        1 MOL      0.159142
     37 H17        -0.8700    7.4990   -1.6590 hx        1 MOL      0.159142
     38 H18         1.0460    8.1050   -2.8430 hn        1 MOL      0.309422
     39 H19         0.1450    9.4220   -3.0750 hn        1 MOL      0.309422
     40 H20         1.3020    9.4420   -1.9070 hn        1 MOL      0.309422
     41 N4          4.0780    3.4300    2.1080 n         1 MOL     -0.261580
     42 C13         5.0040    2.8750    3.0980 c3        1 MOL     -0.093848
     43 C14         6.0840    2.0050    2.5120 c         1 MOL      0.377530
     44 O6          6.8900    1.5070    3.2490 o         1 MOL     -0.487887
     45 C15         4.2210    2.1820    4.2980 c3        1 MOL     -0.195628
     46 C16         3.2320    1.0350    3.9920 c         1 MOL      0.867384
     47 O7          3.0110    0.6040    2.8670 o         1 MOL     -0.747543
     48 O8          2.5980    0.6660    4.9680 o         1 MOL     -0.747543
     49 H21         3.3230    2.8170    1.8120 hn        1 MOL      0.212024
     50 H22         5.4400    3.7350    3.5950 h1        1 MOL      0.136139
     51 H23         3.8290    2.9400    4.9770 hc        1 MOL      0.053610
     52 H24         5.0510    1.6950    4.8150 hc        1 MOL      0.053610
     53 N5          6.1020    1.7240    1.2210 n         1 MOL      0.018419
     54 C17         7.1180    0.9010    0.4960 c3        1 MOL     -0.211320
     55 C18         7.3990   -0.5010    1.0130 c         1 MOL      0.573769
     56 O9          8.3920   -0.7580    1.6270 o         1 MOL     -0.559005
     57 H25         5.3550    2.1330    0.6770 hn        1 MOL      0.045185
     58 H26         8.0430    1.4370    0.3020 h1        1 MOL      0.092190
     59 H27         6.6360    0.6650   -0.4590 h1        1 MOL      0.092190
     60 N6          6.4680   -1.4310    0.7510 n         1 MOL     -0.209796
     61 C19         6.5630   -2.8350    1.1770 c3        1 MOL      0.147385
     62 C20         6.3760   -3.8170   -0.0350 c         1 MOL      0.359137
     63 O10         6.6750   -4.9770    0.1220 o         1 MOL     -0.508952
     64 C21         5.5770   -3.2340    2.2940 c3        1 MOL     -0.292788
     65 C22         4.0880   -2.9760    2.0730 c         1 MOL      0.782011
     66 O11         3.3520   -2.7340    3.0550 o         1 MOL     -0.711677
     67 O12         3.6510   -3.0540    0.9040 o         1 MOL     -0.711677
     68 H28         5.6750   -1.1270    0.2090 hn        1 MOL     -0.065735
     69 H29         7.6030   -3.0390    1.4380 h1        1 MOL      0.051737
     70 H30         5.8670   -2.6050    3.1350 hc        1 MOL      0.080301
     71 H31         5.6770   -4.2750    2.5930 hc        1 MOL      0.080301
     72 N7          6.0210   -3.2120   -1.1490 n         1 MOL     -0.228677
     73 C23         5.8320   -3.9810   -2.4300 c3        1 MOL     -0.106814
     74 C24         4.4260   -4.5000   -2.6300 c         1 MOL      0.531511
     75 O13         4.2450   -5.3900   -3.5030 o         1 MOL     -0.576145
     76 H32         6.1040   -2.2140   -1.2390 hn        1 MOL      0.240041
     77 H33         6.6000   -4.7430   -2.5950 h1        1 MOL      0.079293
     78 H34         5.8520   -3.2480   -3.2380 h1        1 MOL      0.079293
     79 N8          3.4580   -4.0250   -1.8250 n         1 MOL     -0.172088
     80 C25         1.9920   -4.2860   -2.0680 c3        1 MOL     -0.420207
     81 C26         1.1580   -2.9940   -2.0390 c         1 MOL      0.883920
     82 O14         1.3940   -2.0490   -1.2840 o         1 MOL     -0.700486
     83 C27         1.3930   -5.3720   -1.1930 c3        1 MOL      0.513991
     84 C28         1.7760   -6.7800   -1.5080 c3        1 MOL     -0.490105
     85 O15         1.5670   -5.1110    0.1670 oh        1 MOL     -0.621585
     86 H35         3.7020   -3.2320   -1.2460 hn        1 MOL      0.243785
     87 H36         1.8800   -4.6500   -3.0920 h1        1 MOL      0.113246
     88 H37         0.3090   -5.3040   -1.3180 h1        1 MOL      0.000238
     89 H38         2.3560   -4.5690    0.2850 ho        1 MOL      0.376748
     90 H39         2.8230   -6.9190   -1.2190 hc        1 MOL      0.126010
     91 H40         1.0830   -7.3840   -0.9230 hc        1 MOL      0.126010
     92 H41         1.6710   -7.0410   -2.5500 hc        1 MOL      0.126010
     93 N9          0.1370   -3.0480   -2.8350 n         1 MOL     -0.690124
     94 C29        -0.9920   -2.1340   -2.7820 c3        1 MOL      0.097057
     95 C30        -2.1180   -2.7480   -2.0470 c         1 MOL      0.459449
     96 O16        -2.4680   -3.9330   -2.3450 o         1 MOL     -0.574318
     97 C31        -1.4110   -1.5710   -4.1810 c3        1 MOL      0.262022
     98 C32        -0.2420   -0.9700   -5.0550 c3        1 MOL      0.017019
     99 C33        -2.4200   -0.3940   -3.9080 c3        1 MOL     -0.532263
    100 C34        -0.6070   -0.7000   -6.4880 c3        1 MOL     -0.128780
    101 H42         0.1090   -3.8940   -3.3880 hn        1 MOL      0.325968
    102 H43        -0.6000   -1.3120   -2.1770 h1        1 MOL      0.076793
    103 H44        -1.8950   -2.4520   -4.6010 hc        1 MOL     -0.016893
    104 H45         0.6420   -1.6030   -5.0250 hc        1 MOL      0.029883
    105 H46        -0.0240    0.0240   -4.6620 hc        1 MOL      0.029883
    106 H47        -2.7790   -0.0380   -4.8710 hc        1 MOL      0.108731
    107 H48        -3.3030   -0.7410   -3.3630 hc        1 MOL      0.108731
    108 H49        -1.9100    0.3850   -3.3530 hc        1 MOL      0.108731
    109 H50        -1.5610   -0.1610   -6.5520 hc        1 MOL      0.024869
    110 H51         0.1850   -0.0920   -6.9220 hc        1 MOL      0.024869
    111 H52        -0.6960   -1.6440   -7.0310 hc        1 MOL      0.024869
    112 N10        -2.7690   -2.1000   -1.0710 n         1 MOL     -0.110550
    113 C35        -4.0430   -2.5280   -0.4540 c3        1 MOL     -0.035857
    114 C36        -5.1840   -1.7270   -0.9450 c         1 MOL      0.436727
    115 O17        -5.0200   -0.6450   -1.4810 o         1 MOL     -0.416042
    116 C37        -4.0260   -2.4180    1.0720 c3        1 MOL      0.278756
    117 C38        -3.0820   -3.4910    1.6200 c3        1 MOL     -0.938983
    118 O18        -3.5870   -1.1770    1.5710 oh        1 MOL     -0.499968
    119 H53        -2.3950   -1.1950   -0.8090 hn        1 MOL      0.161534
    120 H54        -4.2580   -3.5640   -0.6950 h1        1 MOL      0.071352
    121 H55        -4.9830   -2.6050    1.5630 h1        1 MOL      0.002196
    122 H56        -2.6280   -1.1040    1.5950 ho        1 MOL      0.354989
    123 H57        -2.0700   -3.4090    1.2290 hc        1 MOL      0.255893
    124 H58        -3.0770   -3.3670    2.7020 hc        1 MOL      0.255893
    125 H59        -3.4690   -4.4760    1.3560 hc        1 MOL      0.255893
    126 N11        -6.3770   -2.1670   -0.6280 n         1 MOL     -0.383163
    127 C39        -7.6020   -1.3480   -0.7890 c3        1 MOL     -0.112426
    128 C40        -7.4860   -0.0240   -0.0660 c         1 MOL      0.313194
    129 O19        -7.9310    1.0290   -0.5730 o         1 MOL     -0.460587
    130 C41        -8.8460   -2.0460   -0.3050 c3        1 MOL      0.281313
    131 C42        -9.4670   -3.1160   -1.2520 c3        1 MOL     -0.450444
    132 O20        -8.6300   -2.6630    0.9340 oh        1 MOL     -0.686077
    133 H60        -6.4680   -2.9610   -0.0120 hn        1 MOL      0.273046
    134 H61        -7.7200   -1.1430   -1.8580 h1        1 MOL      0.171428
    135 H62        -9.5760   -1.2560   -0.1510 h1        1 MOL      0.056057
    136 H63        -9.4720   -2.9090    1.3240 ho        1 MOL      0.432842
    137 H64        -9.1570   -4.0940   -0.8900 hc        1 MOL      0.133058
    138 H65       -10.5560   -3.1960   -1.1420 hc        1 MOL      0.133058
    139 H66        -9.2570   -2.9600   -2.3070 hc        1 MOL      0.133058
    140 N12        -6.8750   -0.0210    1.1290 n         1 MOL     -0.184959
    141 C43        -6.6580    1.1980    1.9310 c3        1 MOL     -0.046190
    142 C44        -5.8110    2.2180    1.1230 c         1 MOL      0.284833
    143 O21        -6.1320    3.4230    1.1260 o         1 MOL     -0.495906
    144 C45        -5.9330    0.9430    3.2880 c3        1 MOL     -0.025680
    145 C46        -6.6860   -0.0130    4.2240 c3        1 MOL      0.122356
    146 C47        -5.8320   -0.5000    5.4180 c3        1 MOL      0.130710
    147 C48        -6.6050   -1.3920    6.3630 c3        1 MOL     -0.143915
    148 N13        -6.8760   -2.7350    5.8160 n4        1 MOL     -0.418770
    149 H67        -6.5930   -0.9140    1.5050 hn        1 MOL      0.271067
    150 H68        -7.6410    1.6230    2.1450 h1        1 MOL      0.096733
    151 H69        -5.8270    1.9020    3.7840 hc        1 MOL      0.025612
    152 H70        -4.9810    0.5290    2.9370 hc        1 MOL      0.025612
    153 H71        -7.0800   -0.8460    3.6380 hc        1 MOL     -0.062634
    154 H72        -7.5780    0.5630    4.4930 hc        1 MOL     -0.062634
    155 H73        -5.3990    0.3380    5.9530 hc        1 MOL     -0.004623
    156 H74        -5.0410   -1.0690    4.9200 hc        1 MOL     -0.004623
    157 H75        -7.4780   -0.8010    6.6260 hx        1 MOL      0.148686
    158 H76        -6.0350   -1.4770    7.2900 hx        1 MOL      0.148686
    159 H77        -6.0570   -3.3240    5.7710 hn        1 MOL      0.350515
    160 H78        -7.7080   -3.1840    6.1770 hn        1 MOL      0.350515
    161 H79        -7.1830   -2.5350    4.8810 hn        1 MOL      0.350515
    162 N14        -4.7460    1.7980    0.4590 n         1 MOL      0.036105
    163 C49        -3.8920    2.6410   -0.4040 c3        1 MOL     -0.373172
    164 C50        -4.6000    3.1430   -1.6890 c         1 MOL      0.529975
    165 O22        -4.3280    4.2720   -2.1100 o         1 MOL     -0.557079
    166 C51        -2.5440    1.8070   -0.5810 c3        1 MOL      0.124094
    167 C52        -1.8030    1.5300    0.7330 c3        1 MOL     -0.185880
    168 C53        -0.6160    0.6430    0.6540 c         1 MOL      0.784822
    169 O23         0.4760    1.1030    0.8840 o         1 MOL     -0.737301
    170 O24        -0.7320   -0.5820    0.3770 o         1 MOL     -0.737301
    171 H80        -4.4440    0.8960    0.7900 hn        1 MOL      0.239022
    172 H81        -3.6820    3.5410    0.1720 h1        1 MOL      0.159952
    173 H82        -1.9520    2.2850   -1.3630 hc        1 MOL      0.054111
    174 H83        -2.8970    0.8620   -0.9740 hc        1 MOL      0.054111
    175 H84        -2.5360    1.1970    1.4710 hc        1 MOL      0.008227
    176 H85        -1.3770    2.4590    1.1130 hc        1 MOL      0.008227
    177 N15        -5.5960    2.4830   -2.3150 n         1 MOL     -0.093182
    178 C54        -6.3730    2.9160   -3.4190 c3        1 MOL     -0.399497
    179 H86        -5.7710    2.8740   -4.3260 h1        1 MOL      0.138428
    180 H87        -7.2420    2.2660   -3.5290 h1        1 MOL      0.138428
    181 H88        -6.7050    3.9400   -3.2500 h1        1 MOL      0.138428
    182 H89        -5.8490    1.5810   -1.9270 hn        1 MOL      0.139945
    183 Ca1         1.9150   -1.1100    1.1310 Ca        1 MOL      1.742038
    184 O25         0.6690   -0.8290    3.7560 oh        1 MOL     -0.877364
    185 H90         0.5810   -1.3310    4.5660 ho        1 MOL      0.408818
    186 H91         1.3380   -0.1680    3.9520 ho        1 MOL      0.408818
    187 O26         0.3870   -3.2490    1.7570 oh        1 MOL     -0.877364
    188 H92         0.0440   -3.4070    2.6380 ho        1 MOL      0.408818
    189 H93         0.2110   -4.0580    1.2830 ho        1 MOL      0.408818
@<TRIPOS>BOND
     1    1    2 1   
     2    1    4 1   
     3    1    5 1   
     4    1    6 1   
     5    2    3 2   
     6    2    7 1   
     7    7    8 1   
     8    7   15 1   
     9    8    9 1   
    10    8   11 1   
    11    8   16 1   
    12    9   10 2   
    13    9   19 1   
    14   11   12 1   
    15   11   17 1   
    16   11   18 1   
    17   12   13 1   
    18   12   14 1   
    19   19   20 1   
    20   19   28 1   
    21   20   21 1   
    22   20   23 1   
    23   20   29 1   
    24   21   22 2   
    25   21   41 1   
    26   23   24 1   
    27   23   30 1   
    28   23   31 1   
    29   24   25 1   
    30   24   32 1   
    31   24   33 1   
    32   25   26 1   
    33   25   34 1   
    34   25   35 1   
    35   26   27 1   
    36   26   36 1   
    37   26   37 1   
    38   27   38 1   
    39   27   39 1   
    40   27   40 1   
    41   41   42 1   
    42   41   49 1   
    43   42   43 1   
    44   42   45 1   
    45   42   50 1   
    46   43   44 2   
    47   43   53 1   
    48   45   46 1   
    49   45   51 1   
    50   45   52 1   
    51   46   47 1   
    52   46   48 1   
    53   53   54 1   
    54   53   57 1   
    55   54   55 1   
    56   54   58 1   
    57   54   59 1   
    58   55   56 2   
    59   55   60 1   
    60   60   61 1   
    61   60   68 1   
    62   61   62 1   
    63   61   64 1   
    64   61   69 1   
    65   62   63 2   
    66   62   72 1   
    67   64   65 1   
    68   64   70 1   
    69   64   71 1   
    70   65   66 1   
    71   65   67 1   
    72   72   73 1   
    73   72   76 1   
    74   73   74 1   
    75   73   77 1   
    76   73   78 1   
    77   74   75 2   
    78   74   79 1   
    79   79   80 1   
    80   79   86 1   
    81   80   81 1   
    82   80   83 1   
    83   80   87 1   
    84   81   82 2   
    85   81   93 1   
    86   83   84 1   
    87   83   85 1   
    88   83   88 1   
    89   84   90 1   
    90   84   91 1   
    91   84   92 1   
    92   85   89 1   
    93   93   94 1   
    94   93  101 1   
    95   94   95 1   
    96   94   97 1   
    97   94  102 1   
    98   95   96 2   
    99   95  112 1   
   100   97   98 1   
   101   97   99 1   
   102   97  103 1   
   103   98  100 1   
   104   98  104 1   
   105   98  105 1   
   106   99  106 1   
   107   99  107 1   
   108   99  108 1   
   109  100  109 1   
   110  100  110 1   
   111  100  111 1   
   112  112  113 1   
   113  112  119 1   
   114  113  114 1   
   115  113  116 1   
   116  113  120 1   
   117  114  115 2   
   118  114  126 1   
   119  116  117 1   
   120  116  118 1   
   121  116  121 1   
   122  117  123 1   
   123  117  124 1   
   124  117  125 1   
   125  118  122 1   
   126  126  127 1   
   127  126  133 1   
   128  127  128 1   
   129  127  130 1   
   130  127  134 1   
   131  128  129 2   
   132  128  140 1   
   133  130  131 1   
   134  130  132 1   
   135  130  135 1   
   136  131  137 1   
   137  131  138 1   
   138  131  139 1   
   139  132  136 1   
   140  140  141 1   
   141  140  149 1   
   142  141  142 1   
   143  141  144 1   
   144  141  150 1   
   145  142  143 2   
   146  142  162 1   
   147  144  145 1   
   148  144  151 1   
   149  144  152 1   
   150  145  146 1   
   151  145  153 1   
   152  145  154 1   
   153  146  147 1   
   154  146  155 1   
   155  146  156 1   
   156  147  148 1   
   157  147  157 1   
   158  147  158 1   
   159  148  159 1   
   160  148  160 1   
   161  148  161 1   
   162  162  163 1   
   163  162  171 1   
   164  163  164 1   
   165  163  166 1   
   166  163  172 1   
   167  164  165 2   
   168  164  177 1   
   169  166  167 1   
   170  166  173 1   
   171  166  174 1   
   172  167  168 1   
   173  167  175 1   
   174  167  176 1   
   175  168  169 1   
   176  168  170 1   
   177  177  178 1   
   178  177  182 1   
   179  178  179 1   
   180  178  180 1   
   181  178  181 1   
   182  184  185 1   
   183  184  186 1   
   184  187  188 1   
   185  187  189 1   
@<TRIPOS>SUBSTRUCTURE
     1 MOL         1 TEMP              0 ****  ****    0 ROOT
