@<TRIPOS>MOLECULE
MOL
  175   173     1     0     0
SMALL
resp


@<TRIPOS>ATOM
      1 C1          0.1380    4.8940    5.1510 c3        1 MOL     -0.333201
      2 C2         -0.3880    4.5960    3.7510 c         1 MOL      0.706444
      3 O1          0.2850    4.6770    2.7380 o         1 MOL     -0.527444
      4 H1          1.2120    5.0730    5.1030 hc        1 MOL      0.081461
      5 H2         -0.3600    5.7800    5.5450 hc        1 MOL      0.081461
      6 H3         -0.0600    4.0440    5.8030 hc        1 MOL      0.081461
      7 N1         -1.7230    4.5170    3.5910 n         1 MOL     -0.619047
      8 C3         -2.3810    3.9420    2.4190 c3        1 MOL      0.206012
      9 C4         -2.4900    4.9560    1.2550 c         1 MOL      0.691990
     10 O2         -2.6880    6.1130    1.6440 o         1 MOL     -0.590001
     11 C5         -3.6870    3.2700    2.7440 c3        1 MOL     -0.489241
     12 C6         -4.1880    2.3860    1.6080 c         1 MOL      0.892259
     13 O3         -5.3510    1.9160    1.7110 o         1 MOL     -0.716410
     14 O4         -3.5060    2.0630    0.5870 o         1 MOL     -0.716410
     15 H4         -2.3840    4.7830    4.3090 hn        1 MOL      0.313208
     16 H5         -1.7460    3.1170    2.1010 h1        1 MOL      0.033744
     17 H6         -4.4280    4.0220    3.0190 hc        1 MOL      0.109554
     18 H7         -3.5430    2.6080    3.6030 hc        1 MOL      0.109554
     19 N2         -2.3670    4.5450   -0.0280 n         1 MOL     -0.681222
     20 C7         -2.4590    5.3620   -1.2540 c3        1 MOL      0.381624
     21 C8         -3.3350    4.7320   -2.3410 c         1 MOL      0.411258
     22 O5         -3.3810    5.2590   -3.4950 o         1 MOL     -0.564923
     23 C9         -1.0520    5.7810   -1.7140 c3        1 MOL     -0.209084
     24 H8         -2.1950    3.5770   -0.2400 hn        1 MOL      0.353873
     25 H9         -3.0140    6.2590   -0.9710 h1        1 MOL     -0.021237
     26 H10        -0.6510    6.5280   -1.0140 hc        1 MOL      0.045288
     27 H11        -0.3780    4.9340   -1.7620 hc        1 MOL      0.045288
     28 H12        -1.1810    6.2520   -2.6930 hc        1 MOL      0.045288
     29 N3         -4.0630    3.6790   -2.0550 n         1 MOL     -0.300304
     30 C10        -4.9390    2.9960   -3.0590 c3        1 MOL      0.056081
     31 C11        -6.2470    2.4430   -2.4880 c         1 MOL      0.293684
     32 O6         -7.2030    2.2670   -3.2530 o         1 MOL     -0.526984
     33 C12        -4.2480    1.8620   -3.8300 c3        1 MOL     -0.033140
     34 C13        -3.2890    1.1820   -2.8760 c         1 MOL      0.613138
     35 O7         -2.1320    1.0380   -3.1520 o         1 MOL     -0.639955
     36 O8         -3.8150    0.4940   -1.9340 o         1 MOL     -0.639955
     37 H13        -4.0010    3.2470   -1.1460 hn        1 MOL      0.149157
     38 H14        -5.1740    3.6610   -3.8900 h1        1 MOL      0.079916
     39 H15        -3.7670    2.1920   -4.7590 hc        1 MOL      0.019155
     40 H16        -4.9690    1.1070   -4.1270 hc        1 MOL      0.019155
     41 N4         -6.3060    2.0340   -1.2300 n         1 MOL     -0.116488
     42 C14        -7.3660    1.2000   -0.6460 c3        1 MOL     -0.225956
     43 C15        -7.3950   -0.2650   -1.1120 c         1 MOL      0.478017
     44 O9         -8.4910   -0.8850   -1.1210 o         1 MOL     -0.583818
     45 H17        -5.5720    2.2480   -0.5720 hn        1 MOL      0.145933
     46 H18        -8.3520    1.5900   -0.9030 h1        1 MOL      0.120208
     47 H19        -7.3300    1.2770    0.4410 h1        1 MOL      0.120208
     48 N5         -6.2050   -0.8780   -1.4630 n         1 MOL     -0.174963
     49 C16        -6.2440   -2.2830   -1.9680 c3        1 MOL     -0.096415
     50 C17        -6.3430   -3.4150   -0.9060 c         1 MOL      0.471168
     51 O10        -6.4150   -4.6040   -1.1930 o         1 MOL     -0.552579
     52 C18        -5.0570   -2.5060   -2.9230 c3        1 MOL      0.031686
     53 C19        -3.6280   -2.3970   -2.2750 c         1 MOL      0.429229
     54 N6         -2.6350   -2.4750   -3.1420 n         1 MOL     -0.664184
     55 O11        -3.3570   -2.3250   -1.1200 o         1 MOL     -0.338638
     56 H20        -5.3910   -0.2880   -1.5640 hn        1 MOL      0.220091
     57 H21        -7.1060   -2.4180   -2.6370 h1        1 MOL      0.104482
     58 H22        -5.1430   -1.7920   -3.7490 hc        1 MOL      0.007407
     59 H23        -5.1480   -3.4760   -3.4140 hc        1 MOL      0.007407
     60 H24        -2.9030   -2.2380   -4.0900 hn        1 MOL      0.328178
     61 H25        -1.6870   -2.4470   -2.8130 hn        1 MOL      0.328178
     62 N7         -6.3040   -3.0220    0.3590 n         1 MOL     -0.236523
     63 C20        -6.1830   -3.9780    1.5030 c3        1 MOL     -0.266374
     64 C21        -4.8220   -4.2990    1.9380 c         1 MOL      0.596714
     65 O12        -4.7530   -4.8920    2.9970 o         1 MOL     -0.595422
     66 H26        -6.1050   -2.0320    0.4910 hn        1 MOL      0.155549
     67 H27        -6.8330   -4.8460    1.3670 h1        1 MOL      0.130013
     68 H28        -6.5950   -3.4550    2.3570 h1        1 MOL      0.130013
     69 N8         -3.7390   -3.9910    1.2080 n         1 MOL     -0.219383
     70 C22        -2.4560   -4.4670    1.6630 c3        1 MOL     -0.179400
     71 C23        -1.4180   -3.3360    1.7950 c         1 MOL      0.609469
     72 O13        -1.5670   -2.3710    1.1520 o         1 MOL     -0.629710
     73 C24        -1.9560   -5.5580    0.6890 c3        1 MOL      0.430479
     74 C25        -2.9200   -6.7460    0.5700 c3        1 MOL     -0.431988
     75 O14        -1.8730   -5.1450   -0.6710 oh        1 MOL     -0.563011
     76 H29        -3.8510   -3.4790    0.3520 hn        1 MOL      0.185318
     77 H30        -2.5930   -4.8110    2.6870 h1        1 MOL      0.073239
     78 H31        -1.0190   -5.9660    1.0590 h1        1 MOL     -0.028050
     79 H32        -1.6810   -4.1940   -0.6280 ho        1 MOL      0.342998
     80 H33        -3.0960   -7.2430    1.5260 hc        1 MOL      0.108216
     81 H34        -3.9380   -6.5420    0.2470 hc        1 MOL      0.108216
     82 H35        -2.4650   -7.4760   -0.1050 hc        1 MOL      0.108216
     83 N9         -0.3270   -3.5370    2.4910 n         1 MOL     -0.440567
     84 C26         0.8140   -2.5980    2.3900 c3        1 MOL      0.129223
     85 C27         1.6170   -2.9710    1.1650 c         1 MOL      0.385681
     86 O15         2.0860   -4.0910    0.9150 o         1 MOL     -0.583498
     87 C28         1.6050   -2.6000    3.6600 c3        1 MOL     -0.079579
     88 C29         0.8860   -1.7200    4.6980 c3        1 MOL      0.197753
     89 C30         3.1240   -2.2140    3.5080 c3        1 MOL     -0.080657
     90 C31         1.4710   -1.7890    6.0550 c3        1 MOL     -0.271367
     91 H36        -0.2150   -4.4290    2.9600 hn        1 MOL      0.254034
     92 H37         0.4030   -1.5870    2.3170 h1        1 MOL     -0.012131
     93 H38         1.5990   -3.6320    4.0160 hc        1 MOL      0.038829
     94 H39        -0.1560   -2.0510    4.7160 hc        1 MOL     -0.026676
     95 H40         0.9120   -0.6770    4.3830 hc        1 MOL     -0.026676
     96 H41         3.1620   -1.2580    2.9860 hc        1 MOL      0.021243
     97 H42         3.7400   -2.2250    4.4150 hc        1 MOL      0.021243
     98 H43         3.7140   -2.8310    2.8340 hc        1 MOL      0.021243
     99 H44         1.4630   -2.8400    6.3340 hc        1 MOL      0.055257
    100 H45         2.4870   -1.3960    5.9840 hc        1 MOL      0.055257
    101 H46         0.8320   -1.1480    6.6670 hc        1 MOL      0.055257
    102 N10         1.8300   -1.9790    0.3760 n         1 MOL      0.011095
    103 C32         2.7020   -1.9400   -0.8060 c3        1 MOL      0.004017
    104 C33         4.1100   -1.4130   -0.5410 c         1 MOL      0.362771
    105 O16         4.3180   -0.5190    0.2600 o         1 MOL     -0.214767
    106 C34         1.9810   -1.1880   -1.9420 c3        1 MOL     -0.195332
    107 C35         0.6330   -1.7470   -2.2930 c         1 MOL      0.685791
    108 O17        -0.3370   -1.5960   -1.5620 o         1 MOL     -0.654874
    109 O18         0.5060   -2.1400   -3.4440 o         1 MOL     -0.654874
    110 H47         1.1770   -1.2080    0.3440 hn        1 MOL      0.103513
    111 H48         2.7500   -2.9520   -1.2180 h1        1 MOL      0.040163
    112 H49         2.6130   -1.2270   -2.8200 hc        1 MOL      0.063404
    113 H50         1.8620   -0.1330   -1.6700 hc        1 MOL      0.063404
    114 N11         5.0860   -1.9470   -1.2750 n         1 MOL     -0.587296
    115 C36         6.5460   -1.6560   -1.1790 c3        1 MOL      0.350877
    116 C37         6.9680   -0.1620   -0.9670 c         1 MOL      0.320528
    117 O19         7.8260    0.0120   -0.1370 o         1 MOL     -0.474501
    118 C38         7.2850   -2.3270   -2.3440 c3        1 MOL     -0.287095
    119 C39         8.7690   -2.0710   -2.3250 ca        1 MOL      0.247577
    120 C40         9.6360   -2.5300   -1.3260 ca        1 MOL     -0.295930
    121 C41         9.3700   -1.2860   -3.3670 ca        1 MOL     -0.295930
    122 C42        11.0320   -2.2210   -1.2910 ca        1 MOL     -0.021037
    123 C43        10.7680   -0.8960   -3.2470 ca        1 MOL     -0.021037
    124 C44        11.5960   -1.4210   -2.2740 ca        1 MOL     -0.187797
    125 H51         4.8230   -2.5170   -2.0580 hn        1 MOL      0.329833
    126 H52         6.9080   -2.1680   -0.2850 h1        1 MOL      0.030556
    127 H53         6.8530   -2.0660   -3.3160 hc        1 MOL      0.081525
    128 H54         7.0950   -3.3800   -2.1790 hc        1 MOL      0.081525
    129 H55         9.3550   -3.1390   -0.4810 ha        1 MOL      0.142910
    130 H56         8.7660   -0.9600   -4.1970 ha        1 MOL      0.142910
    131 H57        11.7220   -2.5100   -0.5210 ha        1 MOL      0.094718
    132 H58        11.1380   -0.1090   -3.8790 ha        1 MOL      0.094718
    133 H59        12.6500   -1.2250   -2.1740 ha        1 MOL      0.116495
    134 N12         6.3600    0.8000   -1.6250 n         1 MOL     -0.014353
    135 C45         6.6700    2.2340   -1.3420 c3        1 MOL     -0.120624
    136 C46         5.9940    2.7390   -0.0600 c         1 MOL      0.320855
    137 O20         6.6530    3.4710    0.7560 o         1 MOL     -0.499074
    138 C47         6.0900    2.9860   -2.5740 c3        1 MOL      0.022006
    139 C48         5.0230    2.0930   -3.1390 c3        1 MOL     -0.152521
    140 C49         5.5490    0.6310   -2.7930 c3        1 MOL      0.010494
    141 H60         7.7570    2.2590   -1.2430 h1        1 MOL      0.110453
    142 H61         5.7940    4.0200   -2.3800 hc        1 MOL      0.033769
    143 H62         6.8910    3.1720   -3.2940 hc        1 MOL      0.033769
    144 H63         4.1560    2.2730   -2.5030 hc        1 MOL      0.072108
    145 H64         4.8570    2.2030   -4.2030 hc        1 MOL      0.072108
    146 H65         4.7600   -0.1080   -2.6940 h1        1 MOL      0.018272
    147 H66         6.1490    0.2540   -3.6250 h1        1 MOL      0.018272
    148 N13         4.8290    2.1940    0.3070 n         1 MOL     -0.075371
    149 C50         4.1590    2.4640    1.6230 c3        1 MOL     -0.153805
    150 C51         4.9540    1.8650    2.8040 c         1 MOL      0.416652
    151 O21         5.1860    2.5600    3.8210 o         1 MOL     -0.547282
    152 C52         2.6620    1.9620    1.5990 c3        1 MOL      0.017548
    153 C53         1.8390    2.2620    0.3610 c3        1 MOL     -0.140838
    154 C54         0.3910    1.7300    0.4430 c         1 MOL      0.560315
    155 O22         0.2050    0.5850    0.9080 o         1 MOL     -0.643968
    156 O23        -0.4550    2.0860   -0.4130 o         1 MOL     -0.643968
    157 H67         4.5400    1.3880   -0.2260 hn        1 MOL      0.052545
    158 H68         4.1020    3.5410    1.7530 h1        1 MOL      0.132336
    159 H69         2.1350    2.2590    2.5030 hc        1 MOL      0.007369
    160 H70         2.6610    0.8660    1.5610 hc        1 MOL      0.007369
    161 H71         2.2790    1.9100   -0.5740 hc        1 MOL      0.064633
    162 H72         1.9050    3.3460    0.3240 hc        1 MOL      0.064633
    163 N14         5.4920    0.6840    2.6180 n         1 MOL     -0.034070
    164 C55         6.3600   -0.0020    3.5230 c3        1 MOL     -0.104875
    165 H73         6.6690    0.6800    4.3160 h1        1 MOL      0.049206
    166 H74         5.8330   -0.8500    3.9600 h1        1 MOL      0.049206
    167 H75         7.2400   -0.3560    2.9860 h1        1 MOL      0.049206
    168 H76         5.1610    0.0530    1.9020 hn        1 MOL      0.073571
    169 Ca1        -2.0410   -0.0180   -0.1970 Ca        1 MOL      1.639320
    170 O24        -4.5670   -0.7870    1.2990 oh        1 MOL     -0.754600
    171 H77        -5.0780   -1.2730    1.9510 ho        1 MOL      0.368245
    172 H78        -4.8450    0.1220    1.4100 ho        1 MOL      0.368245
    173 O25        -1.9650    0.3510    2.5620 oh        1 MOL     -0.754600
    174 H79        -1.0190    0.3680    2.3950 ho        1 MOL      0.368245
    175 H80        -2.0410    0.2630    3.5090 ho        1 MOL      0.368245
@<TRIPOS>BOND
     1    1    2 1   
     2    1    4 1   
     3    1    5 1   
     4    1    6 1   
     5    2    3 2   
     6    2    7 1   
     7    7    8 1   
     8    7   15 1   
     9    8    9 1   
    10    8   11 1   
    11    8   16 1   
    12    9   10 2   
    13    9   19 1   
    14   11   12 1   
    15   11   17 1   
    16   11   18 1   
    17   12   13 1   
    18   12   14 1   
    19   19   20 1   
    20   19   24 1   
    21   20   21 1   
    22   20   23 1   
    23   20   25 1   
    24   21   22 2   
    25   21   29 1   
    26   23   26 1   
    27   23   27 1   
    28   23   28 1   
    29   29   30 1   
    30   29   37 1   
    31   30   31 1   
    32   30   33 1   
    33   30   38 1   
    34   31   32 2   
    35   31   41 1   
    36   33   34 1   
    37   33   39 1   
    38   33   40 1   
    39   34   35 1   
    40   34   36 1   
    41   41   42 1   
    42   41   45 1   
    43   42   43 1   
    44   42   46 1   
    45   42   47 1   
    46   43   44 2   
    47   43   48 1   
    48   48   49 1   
    49   48   56 1   
    50   49   50 1   
    51   49   52 1   
    52   49   57 1   
    53   50   51 2   
    54   50   62 1   
    55   52   53 1   
    56   52   58 1   
    57   52   59 1   
    58   53   54 1   
    59   53   55 2   
    60   54   60 1   
    61   54   61 1   
    62   62   63 1   
    63   62   66 1   
    64   63   64 1   
    65   63   67 1   
    66   63   68 1   
    67   64   65 2   
    68   64   69 1   
    69   69   70 1   
    70   69   76 1   
    71   70   71 1   
    72   70   73 1   
    73   70   77 1   
    74   71   72 2   
    75   71   83 1   
    76   73   74 1   
    77   73   75 1   
    78   73   78 1   
    79   74   80 1   
    80   74   81 1   
    81   74   82 1   
    82   75   79 1   
    83   83   84 1   
    84   83   91 1   
    85   84   85 1   
    86   84   87 1   
    87   84   92 1   
    88   85   86 2   
    89   85  102 1   
    90   87   88 1   
    91   87   89 1   
    92   87   93 1   
    93   88   90 1   
    94   88   94 1   
    95   88   95 1   
    96   89   96 1   
    97   89   97 1   
    98   89   98 1   
    99   90   99 1   
   100   90  100 1   
   101   90  101 1   
   102  102  103 1   
   103  102  110 1   
   104  103  104 1   
   105  103  106 1   
   106  103  111 1   
   107  104  105 2   
   108  104  114 1   
   109  106  107 1   
   110  106  112 1   
   111  106  113 1   
   112  107  108 1   
   113  107  109 1   
   114  114  115 1   
   115  114  125 1   
   116  115  116 1   
   117  115  118 1   
   118  115  126 1   
   119  116  117 2   
   120  116  134 1   
   121  118  119 1   
   122  118  127 1   
   123  118  128 1   
   124  119  120 ar  
   125  119  121 ar  
   126  120  122 ar  
   127  120  129 1   
   128  121  123 ar  
   129  121  130 1   
   130  122  124 ar  
   131  122  131 1   
   132  123  124 ar  
   133  123  132 1   
   134  124  133 1   
   135  134  135 1   
   136  134  140 1   
   137  135  136 1   
   138  135  138 1   
   139  135  141 1   
   140  136  137 2   
   141  136  148 1   
   142  138  139 1   
   143  138  142 1   
   144  138  143 1   
   145  139  140 1   
   146  139  144 1   
   147  139  145 1   
   148  140  146 1   
   149  140  147 1   
   150  148  149 1   
   151  148  157 1   
   152  149  150 1   
   153  149  152 1   
   154  149  158 1   
   155  150  151 2   
   156  150  163 1   
   157  152  153 1   
   158  152  159 1   
   159  152  160 1   
   160  153  154 1   
   161  153  161 1   
   162  153  162 1   
   163  154  155 1   
   164  154  156 1   
   165  163  164 1   
   166  163  168 1   
   167  164  165 1   
   168  164  166 1   
   169  164  167 1   
   170  170  171 1   
   171  170  172 1   
   172  173  174 1   
   173  173  175 1   
@<TRIPOS>SUBSTRUCTURE
     1 MOL         1 TEMP              0 ****  ****    0 ROOT
