@<TRIPOS>MOLECULE
MOL
  175   173     1     0     0
SMALL
resp


@<TRIPOS>ATOM
      1 C1          0.4810    3.8480    5.5390 c3        1 MOL     -0.437385
      2 C2         -0.0830    3.9460    4.1510 c         1 MOL      0.716218
      3 O1          0.5870    4.3040    3.1570 o         1 MOL     -0.586394
      4 H1          0.7190    4.8460    5.9060 hc        1 MOL      0.107475
      5 H2         -0.2530    3.3850    6.1980 hc        1 MOL      0.107475
      6 H3          1.3870    3.2430    5.5210 hc        1 MOL      0.107475
      7 N1         -1.3430    3.5190    4.0130 n         1 MOL     -0.633333
      8 C3         -2.0920    3.3810    2.7550 c3        1 MOL      0.249354
      9 C4         -2.1220    4.6450    1.9110 c         1 MOL      0.628000
     10 O2         -2.5380    5.6110    2.4550 o         1 MOL     -0.589540
     11 C5         -3.5240    2.7910    3.1180 c3        1 MOL     -0.433064
     12 C6         -4.2830    2.2270    1.9140 c         1 MOL      0.885786
     13 O3         -3.6400    1.9730    0.8480 o         1 MOL     -0.699169
     14 O4         -5.5040    2.0450    2.0850 o         1 MOL     -0.699169
     15 H4         -1.7950    3.3410    4.8940 hn        1 MOL      0.320047
     16 H5         -1.5480    2.6020    2.2220 h1        1 MOL      0.059704
     17 H6         -4.1260    3.5680    3.5950 hc        1 MOL      0.078923
     18 H7         -3.3860    1.9570    3.8100 hc        1 MOL      0.078923
     19 N2         -1.8200    4.5510    0.5950 n         1 MOL     -0.460576
     20 C7         -1.9100    5.5690   -0.3740 c3        1 MOL      0.293067
     21 C8         -2.8580    5.2270   -1.5980 c         1 MOL      0.281619
     22 O5         -2.8970    5.9630   -2.6010 o         1 MOL     -0.534706
     23 C9         -0.4940    5.7570   -0.9770 c3        1 MOL     -0.255225
     24 H8         -1.4370    3.6830    0.2350 hn        1 MOL      0.257126
     25 H9         -2.2750    6.5060    0.0440 h1        1 MOL      0.009132
     26 H10        -0.1730    4.7960   -1.3840 hc        1 MOL      0.064024
     27 H11        -0.5800    6.4720   -1.8000 hc        1 MOL      0.064024
     28 H12         0.2290    6.1040   -0.2320 hc        1 MOL      0.064024
     29 N3         -3.5350    4.0930   -1.6320 n         1 MOL     -0.056465
     30 C10        -4.4630    3.6150   -2.7020 c3        1 MOL     -0.050549
     31 C11        -5.8120    2.9110   -2.3330 c         1 MOL      0.311184
     32 O6         -6.6240    2.6780   -3.2470 o         1 MOL     -0.521401
     33 C12        -3.7670    2.5530   -3.5720 c3        1 MOL     -0.025861
     34 C13        -3.0750    1.4250   -2.7540 c         1 MOL      0.649390
     35 O7         -1.8900    1.1700   -2.9280 o         1 MOL     -0.683400
     36 O8         -3.7940    0.8010   -1.9590 o         1 MOL     -0.683400
     37 H13        -3.5670    3.5130   -0.8040 hn        1 MOL      0.038390
     38 H14        -4.6610    4.4130   -3.4220 h1        1 MOL      0.093884
     39 H15        -3.0150    2.9600   -4.2280 hc        1 MOL      0.010705
     40 H16        -4.4800    2.0110   -4.1930 hc        1 MOL      0.010705
     41 N4         -6.0420    2.5690   -1.0980 n         1 MOL     -0.169768
     42 C14        -7.2080    1.7700   -0.6570 c3        1 MOL     -0.121590
     43 C15        -7.3310    0.2740   -1.1170 c         1 MOL      0.433171
     44 O9         -8.4490   -0.2710   -0.9710 o         1 MOL     -0.590570
     45 H17        -5.4010    2.9910   -0.4300 hn        1 MOL      0.177242
     46 H18        -8.1340    2.2890   -0.9040 h1        1 MOL      0.093018
     47 H19        -7.1840    1.7250    0.4270 h1        1 MOL      0.093018
     48 N5         -6.2650   -0.3920   -1.4820 n         1 MOL     -0.248733
     49 C16        -6.3190   -1.7410   -2.1260 c3        1 MOL     -0.059808
     50 C17        -6.4370   -2.8890   -1.1620 c         1 MOL      0.495275
     51 O10        -6.7930   -3.9810   -1.5950 o         1 MOL     -0.560129
     52 C18        -5.2340   -1.8800   -3.2510 c3        1 MOL     -0.104528
     53 C19        -3.7960   -2.0690   -2.6740 c         1 MOL      0.543187
     54 N6         -2.8020   -2.1280   -3.5250 n         1 MOL     -0.711895
     55 O11        -3.5510   -1.9260   -1.4840 o         1 MOL     -0.485961
     56 H20        -5.3720    0.0690   -1.4820 hn        1 MOL      0.309855
     57 H21        -7.3030   -1.8560   -2.5670 h1        1 MOL      0.116494
     58 H22        -5.2760   -1.0500   -3.9490 hc        1 MOL      0.049025
     59 H23        -5.5480   -2.6680   -3.9250 hc        1 MOL      0.049025
     60 H24        -2.9820   -1.8860   -4.4880 hn        1 MOL      0.351997
     61 H25        -1.8970   -2.0540   -3.0980 hn        1 MOL      0.351997
     62 N7         -6.3070   -2.6280    0.1410 n         1 MOL     -0.213110
     63 C20        -6.4690   -3.7040    1.2070 c3        1 MOL     -0.322881
     64 C21        -5.1800   -4.5610    1.4400 c         1 MOL      0.502731
     65 O12        -5.2500   -5.6400    2.1220 o         1 MOL     -0.580172
     66 H26        -5.8690   -1.7380    0.3280 hn        1 MOL      0.191797
     67 H27        -7.2220   -4.4100    0.8590 h1        1 MOL      0.153132
     68 H28        -6.7560   -3.2210    2.1380 h1        1 MOL      0.153132
     69 N8         -4.0010   -4.1200    0.9680 n         1 MOL     -0.030232
     70 C22        -2.6680   -4.6050    1.2970 c3        1 MOL     -0.259852
     71 C23        -1.6350   -3.4600    1.5450 c         1 MOL      0.413758
     72 O13        -1.8810   -2.3650    1.0220 o         1 MOL     -0.395153
     73 C24        -2.1230   -5.4620    0.1370 c3        1 MOL      0.527750
     74 C25        -3.0020   -6.6890   -0.1200 c3        1 MOL     -0.471194
     75 O14        -2.0850   -4.6910   -1.0460 oh        1 MOL     -0.589757
     76 H29        -3.9790   -3.2560    0.4380 hn        1 MOL      0.078986
     77 H30        -2.6750   -5.2590    2.1700 h1        1 MOL      0.089461
     78 H31        -1.1200   -5.8470    0.3550 h1        1 MOL     -0.044716
     79 H32        -1.5780   -3.8890   -0.8590 ho        1 MOL      0.335887
     80 H33        -2.4010   -7.4340   -0.6480 hc        1 MOL      0.118060
     81 H34        -3.3150   -7.0690    0.8560 hc        1 MOL      0.118060
     82 H35        -3.8910   -6.4010   -0.6870 hc        1 MOL      0.118060
     83 N9         -0.5320   -3.7320    2.2040 n         1 MOL     -0.384131
     84 C26         0.6900   -2.9820    2.1000 c3        1 MOL     -0.080728
     85 C27         1.4070   -3.2780    0.7630 c         1 MOL      0.434538
     86 O15         1.8120   -4.4080    0.5430 o         1 MOL     -0.570461
     87 C28         1.4780   -3.1240    3.4110 c3        1 MOL      0.546368
     88 C29         0.8160   -2.6370    4.6520 c3        1 MOL     -0.061018
     89 C30         2.8370   -2.5080    3.2260 c3        1 MOL     -0.542573
     90 C31         1.4300   -3.1490    6.0130 c3        1 MOL     -0.060248
     91 H36        -0.4090   -4.6000    2.7030 hn        1 MOL      0.262279
     92 H37         0.4000   -1.9280    2.1950 h1        1 MOL     -0.009201
     93 H38         1.6960   -4.1840    3.5460 hc        1 MOL     -0.102000
     94 H39        -0.2060   -3.0380    4.6400 hc        1 MOL     -0.011382
     95 H40         0.7860   -1.5500    4.5990 hc        1 MOL     -0.011382
     96 H41         2.7410   -1.4870    2.8550 hc        1 MOL      0.113785
     97 H42         3.3330   -2.3610    4.1920 hc        1 MOL      0.113785
     98 H43         3.4310   -3.0910    2.5190 hc        1 MOL      0.113785
     99 H44         1.1480   -4.1690    6.2540 hc        1 MOL      0.010307
    100 H45         2.5110   -3.0380    5.9260 hc        1 MOL      0.010307
    101 H46         1.1700   -2.5470    6.8860 hc        1 MOL      0.010307
    102 N10         1.7700   -2.2190    0.0820 n         1 MOL     -0.078416
    103 C32         2.6270   -2.1340   -1.1340 c3        1 MOL      0.020816
    104 C33         4.0580   -1.5690   -0.7990 c         1 MOL      0.303117
    105 O16         4.2800   -0.9150    0.2050 o         1 MOL     -0.248975
    106 C34         1.8830   -1.2020   -2.0860 c3        1 MOL     -0.091643
    107 C35         0.4060   -1.6820   -2.4190 c         1 MOL      0.629161
    108 O17        -0.5200   -1.6120   -1.5930 o         1 MOL     -0.638635
    109 O18         0.2730   -2.0470   -3.6140 o         1 MOL     -0.638635
    110 H47         1.2980   -1.3790    0.3790 hn        1 MOL      0.111285
    111 H48         2.7100   -3.0990   -1.6200 h1        1 MOL      0.063309
    112 H49         2.4720   -1.1080   -3.0070 hc        1 MOL      0.020920
    113 H50         1.8490   -0.2120   -1.6240 hc        1 MOL      0.020920
    114 N11         5.0750   -1.8540   -1.6080 n         1 MOL     -0.508482
    115 C36         6.4680   -1.4180   -1.4430 c3        1 MOL      0.255850
    116 C37         6.6170    0.0830   -1.1190 c         1 MOL      0.296292
    117 O19         7.3780    0.3670   -0.2080 o         1 MOL     -0.500147
    118 C38         7.3990   -1.9770   -2.5290 c3        1 MOL     -0.168586
    119 C39         8.8530   -1.7800   -2.2220 ca        1 MOL      0.037892
    120 C40         9.4990   -2.7070   -1.3350 ca        1 MOL     -0.149952
    121 C41         9.5340   -0.6470   -2.7480 ca        1 MOL     -0.149952
    122 C42        10.8370   -2.4750   -0.9980 ca        1 MOL     -0.125178
    123 C43        10.9070   -0.5330   -2.4420 ca        1 MOL     -0.125178
    124 C44        11.5310   -1.3990   -1.5380 ca        1 MOL     -0.055021
    125 H51         4.7890   -2.3300   -2.4440 hn        1 MOL      0.287280
    126 H52         6.6900   -2.0440   -0.5720 h1        1 MOL      0.071948
    127 H53         7.0850   -1.6050   -3.5090 hc        1 MOL      0.056364
    128 H54         7.3180   -3.0590   -2.5830 hc        1 MOL      0.056364
    129 H55         8.9520   -3.5660   -0.9730 ha        1 MOL      0.129894
    130 H56         9.0480    0.0810   -3.3790 ha        1 MOL      0.129894
    131 H57        11.3830   -3.1500   -0.3530 ha        1 MOL      0.106510
    132 H58        11.4400    0.2600   -2.9450 ha        1 MOL      0.106510
    133 H59        12.5990   -1.3430   -1.3800 ha        1 MOL      0.078988
    134 N12         5.9770    1.0160   -1.8260 n         1 MOL      0.172743
    135 C45         6.1980    2.4450   -1.5520 c3        1 MOL     -0.171285
    136 C46         5.6160    2.8830   -0.1950 c         1 MOL      0.364869
    137 O20         5.9790    3.9230    0.2540 o         1 MOL     -0.519358
    138 C47         5.4370    3.0890   -2.7360 c3        1 MOL      0.034467
    139 C48         5.4310    2.1100   -3.8450 c3        1 MOL     -0.089695
    140 C49         5.2330    0.7910   -3.0640 c3        1 MOL     -0.257229
    141 H60         7.2810    2.5340   -1.6180 h1        1 MOL      0.102205
    142 H61         4.4150    3.2910   -2.3890 hc        1 MOL      0.035768
    143 H62         5.9010    3.9870   -3.1460 hc        1 MOL      0.035768
    144 H63         4.5820    2.3820   -4.4820 hc        1 MOL      0.048368
    145 H64         6.3540    1.9580   -4.4090 hc        1 MOL      0.048368
    146 H65         4.1570    0.7180   -2.8480 h1        1 MOL      0.109700
    147 H66         5.6820   -0.0180   -3.6460 h1        1 MOL      0.109700
    148 N13         4.8060    2.0860    0.4430 n         1 MOL     -0.011314
    149 C50         4.2570    2.2860    1.7840 c3        1 MOL     -0.189874
    150 C51         4.9950    1.5030    2.8340 c         1 MOL      0.599558
    151 O21         5.0460    1.9350    3.9370 o         1 MOL     -0.585188
    152 C52         2.7580    1.8010    1.7870 c3        1 MOL      0.087044
    153 C53         1.9310    2.1120    0.4770 c3        1 MOL     -0.129627
    154 C54         0.5880    1.4190    0.3870 c         1 MOL      0.599426
    155 O22        -0.3490    1.9880   -0.1840 o         1 MOL     -0.685333
    156 O23         0.3140    0.3460    0.9280 o         1 MOL     -0.685333
    157 H67         4.5830    1.1790    0.0540 hn        1 MOL     -0.008090
    158 H68         4.3260    3.3410    2.0400 h1        1 MOL      0.110471
    159 H69         2.2670    2.1470    2.6850 hc        1 MOL      0.018297
    160 H70         2.7280    0.7290    1.9850 hc        1 MOL      0.018297
    161 H71         2.4880    1.6450   -0.3310 hc        1 MOL      0.072968
    162 H72         1.8240    3.1930    0.3820 hc        1 MOL      0.072968
    163 N14         5.5710    0.3890    2.4800 n         1 MOL     -0.231218
    164 C55         6.4400   -0.4370    3.4220 c3        1 MOL     -0.117744
    165 H73         7.1920    0.2060    3.8790 h1        1 MOL      0.066265
    166 H74         5.8160   -0.8760    4.2010 h1        1 MOL      0.066265
    167 H75         6.9330   -1.2290    2.8610 h1        1 MOL      0.066265
    168 H76         5.2540   -0.0610    1.6330 hn        1 MOL      0.109939
    169 Ca1        -2.1340   -0.0930   -0.2230 Ca        1 MOL      1.670721
    170 O24        -4.4090   -0.7170    1.0490 oh        1 MOL     -0.807012
    171 H77        -4.7170    0.1860    1.0270 ho        1 MOL      0.386735
    172 H78        -4.6990   -1.0500    1.8900 ho        1 MOL      0.386735
    173 O25        -1.6220    0.0590    2.7510 oh        1 MOL     -0.807012
    174 H79        -0.6710    0.0200    2.6600 ho        1 MOL      0.386735
    175 H80        -1.7680    0.3350    3.6520 ho        1 MOL      0.386735
@<TRIPOS>BOND
     1    1    2 1   
     2    1    4 1   
     3    1    5 1   
     4    1    6 1   
     5    2    3 2   
     6    2    7 1   
     7    7    8 1   
     8    7   15 1   
     9    8    9 1   
    10    8   11 1   
    11    8   16 1   
    12    9   10 2   
    13    9   19 1   
    14   11   12 1   
    15   11   17 1   
    16   11   18 1   
    17   12   13 1   
    18   12   14 1   
    19   19   20 1   
    20   19   24 1   
    21   20   21 1   
    22   20   23 1   
    23   20   25 1   
    24   21   22 2   
    25   21   29 1   
    26   23   26 1   
    27   23   27 1   
    28   23   28 1   
    29   29   30 1   
    30   29   37 1   
    31   30   31 1   
    32   30   33 1   
    33   30   38 1   
    34   31   32 2   
    35   31   41 1   
    36   33   34 1   
    37   33   39 1   
    38   33   40 1   
    39   34   35 1   
    40   34   36 1   
    41   41   42 1   
    42   41   45 1   
    43   42   43 1   
    44   42   46 1   
    45   42   47 1   
    46   43   44 2   
    47   43   48 1   
    48   48   49 1   
    49   48   56 1   
    50   49   50 1   
    51   49   52 1   
    52   49   57 1   
    53   50   51 2   
    54   50   62 1   
    55   52   53 1   
    56   52   58 1   
    57   52   59 1   
    58   53   54 1   
    59   53   55 2   
    60   54   60 1   
    61   54   61 1   
    62   62   63 1   
    63   62   66 1   
    64   63   64 1   
    65   63   67 1   
    66   63   68 1   
    67   64   65 2   
    68   64   69 1   
    69   69   70 1   
    70   69   76 1   
    71   70   71 1   
    72   70   73 1   
    73   70   77 1   
    74   71   72 2   
    75   71   83 1   
    76   73   74 1   
    77   73   75 1   
    78   73   78 1   
    79   74   80 1   
    80   74   81 1   
    81   74   82 1   
    82   75   79 1   
    83   83   84 1   
    84   83   91 1   
    85   84   85 1   
    86   84   87 1   
    87   84   92 1   
    88   85   86 2   
    89   85  102 1   
    90   87   88 1   
    91   87   89 1   
    92   87   93 1   
    93   88   90 1   
    94   88   94 1   
    95   88   95 1   
    96   89   96 1   
    97   89   97 1   
    98   89   98 1   
    99   90   99 1   
   100   90  100 1   
   101   90  101 1   
   102  102  103 1   
   103  102  110 1   
   104  103  104 1   
   105  103  106 1   
   106  103  111 1   
   107  104  105 2   
   108  104  114 1   
   109  106  107 1   
   110  106  112 1   
   111  106  113 1   
   112  107  108 1   
   113  107  109 1   
   114  114  115 1   
   115  114  125 1   
   116  115  116 1   
   117  115  118 1   
   118  115  126 1   
   119  116  117 2   
   120  116  134 1   
   121  118  119 1   
   122  118  127 1   
   123  118  128 1   
   124  119  120 ar  
   125  119  121 ar  
   126  120  122 ar  
   127  120  129 1   
   128  121  123 ar  
   129  121  130 1   
   130  122  124 ar  
   131  122  131 1   
   132  123  124 ar  
   133  123  132 1   
   134  124  133 1   
   135  134  135 1   
   136  134  140 1   
   137  135  136 1   
   138  135  138 1   
   139  135  141 1   
   140  136  137 2   
   141  136  148 1   
   142  138  139 1   
   143  138  142 1   
   144  138  143 1   
   145  139  140 1   
   146  139  144 1   
   147  139  145 1   
   148  140  146 1   
   149  140  147 1   
   150  148  149 1   
   151  148  157 1   
   152  149  150 1   
   153  149  152 1   
   154  149  158 1   
   155  150  151 2   
   156  150  163 1   
   157  152  153 1   
   158  152  159 1   
   159  152  160 1   
   160  153  154 1   
   161  153  161 1   
   162  153  162 1   
   163  154  155 1   
   164  154  156 1   
   165  163  164 1   
   166  163  168 1   
   167  164  165 1   
   168  164  166 1   
   169  164  167 1   
   170  170  171 1   
   171  170  172 1   
   172  173  174 1   
   173  173  175 1   
@<TRIPOS>SUBSTRUCTURE
     1 MOL         1 TEMP              0 ****  ****    0 ROOT
