@<TRIPOS>MOLECULE
MOL
  186   183     1     0     0
SMALL
resp


@<TRIPOS>ATOM
      1 C1          0.7410   -2.2470    6.4340 c3        1 MOL     -0.336189
      2 C2          1.1010   -2.3140    4.8810 c         1 MOL      0.724041
      3 O1          0.3690   -2.9220    4.1260 o         1 MOL     -0.585305
      4 H1         -0.0990   -1.5690    6.5840 hc        1 MOL      0.072418
      5 H2          0.4700   -3.2430    6.7880 hc        1 MOL      0.072418
      6 H3          1.6030   -1.8840    6.9930 hc        1 MOL      0.072418
      7 N1          2.1900   -1.6750    4.4850 n         1 MOL     -0.602324
      8 C3          2.7570   -1.5710    3.1280 c3        1 MOL      0.130854
      9 C4          3.3620   -2.8660    2.6350 c         1 MOL      0.614969
     10 O2          4.3100   -3.3250    3.2160 o         1 MOL     -0.575926
     11 C5          3.7970   -0.4600    3.0380 c3        1 MOL     -0.495191
     12 C6          4.2910   -0.1900    1.6180 c         1 MOL      0.906537
     13 O3          5.2000    0.6920    1.6500 o         1 MOL     -0.695758
     14 O4          3.9670   -0.8440    0.5460 o         1 MOL     -0.695758
     15 H4          2.6400   -1.1610    5.2260 hn        1 MOL      0.320867
     16 H5          1.9230   -1.2680    2.4940 h1        1 MOL      0.120499
     17 H6          4.6610   -0.7050    3.6590 hc        1 MOL      0.115482
     18 H7          3.3290    0.4430    3.4160 hc        1 MOL      0.115482
     19 N2          2.6490   -3.4200    1.6540 n         1 MOL     -0.335134
     20 C7          2.5540   -4.8170    1.2690 c3        1 MOL      0.040945
     21 C8          3.7180   -5.0750    0.2920 c         1 MOL      0.272264
     22 O5          4.4180   -6.1120    0.2970 o         1 MOL     -0.555118
     23 C9          1.1740   -5.1880    0.6480 c3        1 MOL      0.111237
     24 C10         0.0870   -5.1980    1.8190 c3        1 MOL     -0.021260
     25 C11         1.0950   -6.5080   -0.1810 c3        1 MOL     -0.249159
     26 C12        -1.4250   -5.5560    1.5380 c3        1 MOL     -0.047754
     27 H8          1.9680   -2.7750    1.2780 hn        1 MOL      0.182521
     28 H9          2.7920   -5.4520    2.1220 h1        1 MOL      0.059418
     29 H10         0.9200   -4.4200   -0.0670 hc        1 MOL      0.067148
     30 H11         0.0550   -4.1710    2.1680 hc        1 MOL      0.020674
     31 H12         0.4640   -5.7380    2.6820 hc        1 MOL      0.020674
     32 H13         1.3280   -7.3800    0.4350 hc        1 MOL      0.048750
     33 H14         0.1400   -6.7350   -0.6520 hc        1 MOL      0.048750
     34 H15         1.6980   -6.4450   -1.0890 hc        1 MOL      0.048750
     35 H16        -2.0470   -5.3290    2.3920 hc        1 MOL      0.010325
     36 H17        -1.8020   -5.0540    0.6530 hc        1 MOL      0.010325
     37 H18        -1.5310   -6.6310    1.3520 hc        1 MOL      0.010325
     38 N3          3.8270   -4.2220   -0.7120 n         1 MOL      0.046247
     39 C13         4.7650   -4.3870   -1.8050 c3        1 MOL     -0.000923
     40 C14         6.0500   -3.5140   -1.6090 c         1 MOL      0.447617
     41 O6          7.0680   -3.7200   -2.2420 o         1 MOL     -0.555864
     42 C15         4.1600   -3.9860   -3.1820 c3        1 MOL     -0.317978
     43 C16         3.3800   -2.6440   -3.3050 c         1 MOL      0.797033
     44 O7          3.5230   -1.8280   -2.3760 o         1 MOL     -0.688160
     45 O8          2.6310   -2.4890   -4.2820 o         1 MOL     -0.688160
     46 H19         3.1250   -3.5090   -0.8060 hn        1 MOL      0.082537
     47 H20         5.1330   -5.4020   -1.9300 h1        1 MOL      0.080086
     48 H21         3.3190   -4.6770   -3.2220 hc        1 MOL      0.070333
     49 H22         4.8910   -3.9320   -3.9870 hc        1 MOL      0.070333
     50 N4          6.0700   -2.6600   -0.6150 n         1 MOL     -0.197235
     51 C17         7.3310   -2.0450   -0.0970 c3        1 MOL     -0.087484
     52 C18         7.7750   -0.7020   -0.8510 c         1 MOL      0.464073
     53 O9          8.9470   -0.5730   -1.1750 o         1 MOL     -0.593722
     54 H23         5.1790   -2.4270   -0.1900 hn        1 MOL      0.131779
     55 H24         8.1430   -2.7510   -0.2350 h1        1 MOL      0.074834
     56 H25         7.2770   -1.9350    0.9890 h1        1 MOL      0.074834
     57 N5          6.7980    0.1100   -1.2080 n         1 MOL     -0.021343
     58 C19         6.9830    1.3750   -1.9350 c3        1 MOL      0.011351
     59 C20         6.9320    2.6210   -1.0160 c         1 MOL      0.420347
     60 O10         6.9160    3.7370   -1.5370 o         1 MOL     -0.540346
     61 C21         5.9500    1.4910   -3.0820 c3        1 MOL     -0.250603
     62 C22         4.4940    1.4520   -2.6360 c         1 MOL      0.815350
     63 O11         3.5730    1.1070   -3.3620 o         1 MOL     -0.730486
     64 O12         4.2070    1.7910   -1.4660 o         1 MOL     -0.730486
     65 H26         5.8840   -0.1490   -0.8510 hn        1 MOL     -0.019781
     66 H27         7.9330    1.4680   -2.4450 h1        1 MOL      0.090848
     67 H28         6.1410    0.7460   -3.8570 hc        1 MOL      0.067735
     68 H29         6.0030    2.4570   -3.5890 hc        1 MOL      0.067735
     69 N6          6.8340    2.4310    0.3090 n         1 MOL     -0.433451
     70 C23         6.8400    3.4810    1.3300 c3        1 MOL      0.147809
     71 C24         5.5040    4.1000    1.5630 c         1 MOL      0.379565
     72 O13         5.3270    5.0630    2.3300 o         1 MOL     -0.613472
     73 H30         6.7440    1.4920    0.6510 hn        1 MOL      0.267999
     74 H31         7.5360    4.3050    1.1250 h1        1 MOL      0.039340
     75 H32         7.2890    3.1590    2.2660 h1        1 MOL      0.039340
     76 N7          4.4430    3.5830    0.9760 n         1 MOL     -0.097793
     77 C25         3.0530    4.0490    1.0640 c3        1 MOL      0.049204
     78 C26         1.9730    2.9900    1.2220 c         1 MOL      0.498124
     79 O14         2.0750    1.8440    0.8310 o         1 MOL     -0.641358
     80 C27         2.6890    5.0570   -0.1010 c3        1 MOL     -0.019498
     81 C28         3.4010    6.4130    0.0730 c3        1 MOL     -0.139779
     82 C29         2.9720    7.4160   -1.0430 c         1 MOL      0.552544
     83 N8          3.3350    7.1670   -2.2730 n         1 MOL     -0.772308
     84 O15         2.1180    8.3380   -0.8020 o         1 MOL     -0.573861
     85 H33         4.6110    2.6810    0.5510 hn        1 MOL      0.166349
     86 H34         3.0120    4.5810    2.0060 h1        1 MOL      0.035860
     87 H35         1.6000    5.1260   -0.0670 hc        1 MOL      0.040266
     88 H36         3.0260    4.5600   -1.0070 hc        1 MOL      0.040266
     89 H37         4.4710    6.2560    0.0510 hc        1 MOL      0.060508
     90 H38         3.0580    6.9040    0.9900 hc        1 MOL      0.060508
     91 H39         3.9030    6.3700   -2.5200 hn        1 MOL      0.367763
     92 H40         3.0030    7.7920   -2.9960 hn        1 MOL      0.367763
     93 N9          0.9040    3.4400    1.9040 n         1 MOL     -0.378586
     94 C30        -0.2500    2.6180    2.3520 c3        1 MOL     -0.019854
     95 C31        -1.4180    3.0720    1.4740 c         1 MOL      0.405746
     96 O16        -2.0840    4.0650    1.7710 o         1 MOL     -0.565607
     97 C32        -0.5920    2.6550    3.8810 c3        1 MOL      0.192487
     98 C33        -2.0260    2.0620    4.1900 c3        1 MOL     -0.147674
     99 C34         0.5290    1.9290    4.6420 c3        1 MOL     -0.147674
    100 H41         0.9540    4.3270    2.3740 hn        1 MOL      0.268828
    101 H42        -0.0630    1.5830    2.0660 h1        1 MOL      0.172665
    102 H43        -0.5280    3.6620    4.3060 hc        1 MOL     -0.015302
    103 H44        -2.0360    1.9020    5.2630 hc        1 MOL      0.024222
    104 H45        -2.7320    2.8320    3.8760 hc        1 MOL      0.024222
    105 H46        -2.1580    1.1120    3.6710 hc        1 MOL      0.024222
    106 H47         0.7330    0.9080    4.3020 hc        1 MOL      0.024222
    107 H48         1.4730    2.4810    4.6050 hc        1 MOL      0.024222
    108 H49         0.2860    1.8930    5.6950 hc        1 MOL      0.024222
    109 N10        -1.5730    2.4980    0.2950 n         1 MOL     -0.346540
    110 C35        -2.7220    2.8070   -0.5960 c3        1 MOL      0.153366
    111 C36        -4.0450    2.0780   -0.1200 c         1 MOL      0.624539
    112 O17        -3.9800    1.0560    0.5220 o         1 MOL     -0.485038
    113 C37        -2.2710    2.5300   -2.0720 c3        1 MOL     -0.595787
    114 C38        -2.8780    1.2950   -2.7030 c         1 MOL      0.731059
    115 N11        -2.0330    0.2820   -2.8810 n         1 MOL     -0.668040
    116 O18        -3.9820    1.3100   -3.1400 o         1 MOL     -0.557147
    117 H50        -0.9290    1.7840   -0.0250 hn        1 MOL      0.350330
    118 H51        -2.9670    3.8580   -0.4940 h1        1 MOL      0.053038
    119 H52        -1.1770    2.5370   -2.0980 hc        1 MOL      0.173039
    120 H53        -2.4470    3.4520   -2.6250 hc        1 MOL      0.173039
    121 H54        -1.1880    0.2580   -2.3330 hn        1 MOL      0.345138
    122 H55        -2.4200   -0.5380   -3.3380 hn        1 MOL      0.345138
    123 N12        -5.1660    2.4970   -0.5260 n         1 MOL     -0.746470
    124 C39        -6.4600    1.8530   -0.1410 c3        1 MOL      0.395601
    125 C40        -6.4810    0.3170   -0.2630 c         1 MOL      0.685023
    126 O19        -6.8100   -0.3570    0.7320 o         1 MOL     -0.567707
    127 C41        -7.6600    2.4750   -0.8980 c3        1 MOL     -0.178789
    128 C42        -8.9760    2.0700   -0.3010 ca        1 MOL      0.029624
    129 C43        -9.2910    2.5860    0.9680 ca        1 MOL     -0.140746
    130 C44        -9.8660    1.1650   -0.9250 ca        1 MOL     -0.140746
    131 C45       -10.5280    2.2960    1.6510 ca        1 MOL     -0.285135
    132 C46       -10.9140    0.7010   -0.1490 ca        1 MOL     -0.285135
    133 C47       -11.3720    1.2450    1.1030 ca        1 MOL      0.329857
    134 O20       -12.5540    0.8510    1.7530 oh        1 MOL     -0.491022
    135 H56        -5.2090    3.4120   -0.9460 hn        1 MOL      0.332595
    136 H57        -6.6840    2.0800    0.9050 h1        1 MOL     -0.008485
    137 H58        -7.6300    2.2380   -1.9600 hc        1 MOL      0.063478
    138 H59        -7.5660    3.5560   -0.7720 hc        1 MOL      0.063478
    139 H60        -8.7260    3.4250    1.3710 ha        1 MOL      0.137266
    140 H61        -9.7610    0.7080   -1.8960 ha        1 MOL      0.137266
    141 H62       -10.6740    2.7690    2.6050 ha        1 MOL      0.152479
    142 H63       -11.5080   -0.0840   -0.6040 ha        1 MOL      0.152479
    143 H64       -12.9940    0.2750    1.1320 ho        1 MOL      0.351826
    144 N13        -6.0860   -0.2360   -1.3930 n         1 MOL     -0.678366
    145 C48        -6.1330   -1.6690   -1.6410 c3        1 MOL      0.253938
    146 C49        -5.2900   -2.5000   -0.6410 c         1 MOL      0.207043
    147 O21        -5.4920   -3.7230   -0.4990 o         1 MOL     -0.521403
    148 C50        -5.6420   -2.0360   -3.0770 c3        1 MOL     -0.000034
    149 C51        -6.8100   -1.7820   -4.0750 c3        1 MOL     -0.310543
    150 C52        -6.3280   -1.9570   -5.5300 c         1 MOL      0.770003
    151 O22        -6.9720   -1.3310   -6.3730 o         1 MOL     -0.754522
    152 O23        -5.2620   -2.5590   -5.8580 o         1 MOL     -0.754522
    153 H65        -5.5390    0.2880   -2.0600 hn        1 MOL      0.348988
    154 H66        -7.1450   -2.0480   -1.4940 h1        1 MOL      0.052522
    155 H67        -5.3450   -3.0830   -3.0530 hc        1 MOL      0.024603
    156 H68        -4.8220   -1.3410   -3.2770 hc        1 MOL      0.024603
    157 H69        -7.1040   -0.7320   -4.0140 hc        1 MOL      0.049037
    158 H70        -7.6240   -2.4520   -3.7840 hc        1 MOL      0.049037
    159 N14        -4.4390   -1.8410    0.1060 n         1 MOL     -0.104914
    160 C53        -3.6530   -2.4170    1.2670 c3        1 MOL     -0.038465
    161 C54        -4.2850   -2.2190    2.6520 c         1 MOL      0.438092
    162 O24        -3.9820   -3.0250    3.5140 o         1 MOL     -0.543820
    163 C55        -2.2650   -1.6880    1.2450 c3        1 MOL      0.152033
    164 C56        -1.5440   -1.8810   -0.1080 c3        1 MOL      0.005582
    165 C57        -0.2780   -1.1570   -0.0990 c         1 MOL      0.719389
    166 O25         0.7840   -1.6950    0.2790 o         1 MOL     -0.828791
    167 O26        -0.2020    0.0530   -0.4360 o         1 MOL     -0.828791
    168 H71        -4.3410   -0.8610   -0.0980 hn        1 MOL      0.176719
    169 H72        -3.4930   -3.4910    1.1280 h1        1 MOL      0.082492
    170 H73        -1.6360   -2.1730    1.9910 hc        1 MOL     -0.006702
    171 H74        -2.2710   -0.6290    1.4990 hc        1 MOL     -0.006702
    172 H75        -2.1480   -1.4260   -0.9020 hc        1 MOL     -0.029078
    173 H76        -1.2640   -2.9020   -0.3830 hc        1 MOL     -0.029078
    174 N15        -5.1770   -1.2010    2.7480 n         1 MOL     -0.075297
    175 C58        -5.8360   -0.7100    3.9750 c3        1 MOL     -0.204284
    176 H77        -6.4860    0.1280    3.7270 h1        1 MOL      0.079852
    177 H78        -6.4290   -1.5120    4.4150 h1        1 MOL      0.079852
    178 H79        -5.0790   -0.3840    4.6880 h1        1 MOL      0.079852
    179 H80        -5.3100   -0.6700    1.9020 hn        1 MOL      0.061004
    180 Ca1         2.2700    0.0920   -1.1370 Ca        1 MOL      1.762935
    181 O27         0.7770   -0.8450   -3.4400 oh        1 MOL     -0.871500
    182 H81         1.5440   -1.3670   -3.6970 ho        1 MOL      0.403026
    183 H82         0.0230   -1.3550   -3.7220 ho        1 MOL      0.403026
    184 O28         1.4430    2.4260   -2.5040 oh        1 MOL     -0.871500
    185 H83         2.1330    2.2870   -3.1480 ho        1 MOL      0.403026
    186 H84         1.0870    3.2890   -2.7140 ho        1 MOL      0.403026
@<TRIPOS>BOND
     1    1    2 1   
     2    1    4 1   
     3    1    5 1   
     4    1    6 1   
     5    2    3 2   
     6    2    7 1   
     7    7    8 1   
     8    7   15 1   
     9    8    9 1   
    10    8   11 1   
    11    8   16 1   
    12    9   10 2   
    13    9   19 1   
    14   11   12 1   
    15   11   17 1   
    16   11   18 1   
    17   12   13 1   
    18   12   14 1   
    19   19   20 1   
    20   19   27 1   
    21   20   21 1   
    22   20   23 1   
    23   20   28 1   
    24   21   22 2   
    25   21   38 1   
    26   23   24 1   
    27   23   25 1   
    28   23   29 1   
    29   24   26 1   
    30   24   30 1   
    31   24   31 1   
    32   25   32 1   
    33   25   33 1   
    34   25   34 1   
    35   26   35 1   
    36   26   36 1   
    37   26   37 1   
    38   38   39 1   
    39   38   46 1   
    40   39   40 1   
    41   39   42 1   
    42   39   47 1   
    43   40   41 2   
    44   40   50 1   
    45   42   43 1   
    46   42   48 1   
    47   42   49 1   
    48   43   44 1   
    49   43   45 1   
    50   50   51 1   
    51   50   54 1   
    52   51   52 1   
    53   51   55 1   
    54   51   56 1   
    55   52   53 2   
    56   52   57 1   
    57   57   58 1   
    58   57   65 1   
    59   58   59 1   
    60   58   61 1   
    61   58   66 1   
    62   59   60 2   
    63   59   69 1   
    64   61   62 1   
    65   61   67 1   
    66   61   68 1   
    67   62   63 1   
    68   62   64 1   
    69   69   70 1   
    70   69   73 1   
    71   70   71 1   
    72   70   74 1   
    73   70   75 1   
    74   71   72 2   
    75   71   76 1   
    76   76   77 1   
    77   76   85 1   
    78   77   78 1   
    79   77   80 1   
    80   77   86 1   
    81   78   79 2   
    82   78   93 1   
    83   80   81 1   
    84   80   87 1   
    85   80   88 1   
    86   81   82 1   
    87   81   89 1   
    88   81   90 1   
    89   82   83 1   
    90   82   84 2   
    91   83   91 1   
    92   83   92 1   
    93   93   94 1   
    94   93  100 1   
    95   94   95 1   
    96   94   97 1   
    97   94  101 1   
    98   95   96 2   
    99   95  109 1   
   100   97   98 1   
   101   97   99 1   
   102   97  102 1   
   103   98  103 1   
   104   98  104 1   
   105   98  105 1   
   106   99  106 1   
   107   99  107 1   
   108   99  108 1   
   109  109  110 1   
   110  109  117 1   
   111  110  111 1   
   112  110  113 1   
   113  110  118 1   
   114  111  112 2   
   115  111  123 1   
   116  113  114 1   
   117  113  119 1   
   118  113  120 1   
   119  114  115 1   
   120  114  116 2   
   121  115  121 1   
   122  115  122 1   
   123  123  124 1   
   124  123  135 1   
   125  124  125 1   
   126  124  127 1   
   127  124  136 1   
   128  125  126 2   
   129  125  144 1   
   130  127  128 1   
   131  127  137 1   
   132  127  138 1   
   133  128  129 ar  
   134  128  130 ar  
   135  129  131 ar  
   136  129  139 1   
   137  130  132 ar  
   138  130  140 1   
   139  131  133 ar  
   140  131  141 1   
   141  132  133 ar  
   142  132  142 1   
   143  133  134 1   
   144  134  143 1   
   145  144  145 1   
   146  144  153 1   
   147  145  146 1   
   148  145  148 1   
   149  145  154 1   
   150  146  147 2   
   151  146  159 1   
   152  148  149 1   
   153  148  155 1   
   154  148  156 1   
   155  149  150 1   
   156  149  157 1   
   157  149  158 1   
   158  150  151 1   
   159  150  152 1   
   160  159  160 1   
   161  159  168 1   
   162  160  161 1   
   163  160  163 1   
   164  160  169 1   
   165  161  162 2   
   166  161  174 1   
   167  163  164 1   
   168  163  170 1   
   169  163  171 1   
   170  164  165 1   
   171  164  172 1   
   172  164  173 1   
   173  165  166 1   
   174  165  167 1   
   175  174  175 1   
   176  174  179 1   
   177  175  176 1   
   178  175  177 1   
   179  175  178 1   
   180  181  182 1   
   181  181  183 1   
   182  184  185 1   
   183  184  186 1   
@<TRIPOS>SUBSTRUCTURE
     1 MOL         1 TEMP              0 ****  ****    0 ROOT
