@<TRIPOS>MOLECULE
MOL
  179   176     1     0     0
SMALL
resp


@<TRIPOS>ATOM
      1 C1          1.6800    2.5930    6.5250 c3        1 MOL     -0.362089
      2 C2          1.5330    2.2100    5.0320 c         1 MOL      0.711297
      3 O1          2.4820    2.1650    4.2520 o         1 MOL     -0.585349
      4 H1          0.7350    2.9940    6.8920 hc        1 MOL      0.092983
      5 H2          1.9480    1.7080    7.1030 hc        1 MOL      0.092983
      6 H3          2.4590    3.3470    6.6330 hc        1 MOL      0.092983
      7 N1          0.2510    2.1350    4.6030 n         1 MOL     -0.495166
      8 C3         -0.1760    2.0830    3.1870 c3        1 MOL     -0.199836
      9 C4         -0.1800    3.5150    2.5520 c         1 MOL      0.567913
     10 O2         -1.0330    4.3910    2.8280 o         1 MOL     -0.483486
     11 C5         -1.5980    1.4750    3.2280 c3        1 MOL     -0.111382
     12 C6         -2.2080    1.3730    1.8510 c         1 MOL      0.863481
     13 O3         -3.3690    1.0560    1.6220 o         1 MOL     -0.771430
     14 O4         -1.4190    1.5200    0.9150 o         1 MOL     -0.771430
     15 H4         -0.4100    1.9380    5.3400 hn        1 MOL      0.318938
     16 H5          0.5190    1.4600    2.6250 h1        1 MOL      0.103739
     17 H6         -2.1920    2.1790    3.8090 hc        1 MOL      0.028298
     18 H7         -1.5990    0.5030    3.7320 hc        1 MOL      0.028298
     19 N2          0.7220    3.6690    1.5780 n         1 MOL     -0.258682
     20 C7          0.8330    4.9410    0.7630 c3        1 MOL     -0.063205
     21 C8         -0.4760    5.4760    0.2050 c         1 MOL      0.264213
     22 O5         -0.9840    6.4890    0.7010 o         1 MOL     -0.487938
     23 C9          1.8620    4.6070   -0.3670 c3        1 MOL     -0.007105
     24 C10         2.1570    5.8540   -1.3170 c3        1 MOL     -0.025720
     25 C11         3.2900    5.8310   -2.2730 c3        1 MOL     -0.361005
     26 C12         3.1410    4.7690   -3.3740 c3        1 MOL      0.314265
     27 N3          4.4200    4.5190   -4.0280 n4        1 MOL     -0.473815
     28 H8          1.4030    2.9310    1.4550 hn        1 MOL      0.213901
     29 H9          1.2190    5.7570    1.3800 h1        1 MOL      0.104810
     30 H10         1.3410    3.8790   -0.9910 hc        1 MOL      0.067233
     31 H11         2.7740    4.3160    0.1460 hc        1 MOL      0.067233
     32 H12         2.3130    6.6680   -0.6090 hc        1 MOL      0.046246
     33 H13         1.1930    6.0590   -1.7870 hc        1 MOL      0.046246
     34 H14         4.1600    5.5860   -1.6650 hc        1 MOL      0.129575
     35 H15         3.2390    6.8150   -2.7500 hc        1 MOL      0.129575
     36 H16         2.4230    4.9360   -4.1790 hx        1 MOL      0.020698
     37 H17         2.8550    3.8310   -2.9070 hx        1 MOL      0.020698
     38 H18         5.1750    4.4370   -3.3500 hn        1 MOL      0.344463
     39 H19         4.3460    3.6210   -4.4800 hn        1 MOL      0.344463
     40 H20         4.7650    5.1650   -4.7160 hn        1 MOL      0.344463
     41 N4         -1.2180    4.7420   -0.6310 n         1 MOL     -0.028046
     42 C13        -2.4270    5.1760   -1.3540 c3        1 MOL     -0.117948
     43 C14        -3.7290    4.8950   -0.5860 c         1 MOL      0.550120
     44 O6         -4.7560    5.2730   -1.1260 o         1 MOL     -0.556482
     45 C15        -2.5710    4.5980   -2.8190 c3        1 MOL     -0.161039
     46 C16        -2.5210    3.0750   -3.0040 c         1 MOL      0.698648
     47 O7         -2.1900    2.6470   -4.1380 o         1 MOL     -0.711150
     48 O8         -2.6550    2.3010   -2.0100 o         1 MOL     -0.711150
     49 H21        -0.8970    3.7920   -0.7950 hn        1 MOL      0.129931
     50 H22        -2.3890    6.2560   -1.4950 h1        1 MOL      0.103243
     51 H23        -1.7440    5.0030   -3.3960 hc        1 MOL      0.059816
     52 H24        -3.4890    4.9600   -3.2990 hc        1 MOL      0.059816
     53 N5         -3.7690    4.2160    0.5590 n         1 MOL     -0.376315
     54 C17        -5.0870    3.8650    1.1540 c3        1 MOL     -0.067049
     55 C18        -5.8930    2.7890    0.5160 c         1 MOL      0.451698
     56 O9         -7.0890    2.6440    0.8560 o         1 MOL     -0.573951
     57 H25        -2.9870    3.7280    0.9680 hn        1 MOL      0.296349
     58 H26        -5.7150    4.7480    1.1050 h1        1 MOL      0.089875
     59 H27        -5.0530    3.6520    2.2260 h1        1 MOL      0.089875
     60 N6         -5.3000    2.0760   -0.4450 n         1 MOL     -0.008788
     61 C19        -6.1270    1.1450   -1.1690 c3        1 MOL     -0.104636
     62 C20        -6.5610   -0.1790   -0.3440 c         1 MOL      0.266327
     63 O10        -7.5070   -0.8550   -0.7560 o         1 MOL     -0.464889
     64 C21        -5.6020    0.7220   -2.5690 c3        1 MOL     -0.314625
     65 C22        -4.7110   -0.4820   -2.5050 c         1 MOL      0.683564
     66 N7         -4.8000   -1.4310   -3.3600 n         1 MOL     -0.619702
     67 O11        -3.7690   -0.6040   -1.6690 o         1 MOL     -0.660670
     68 H28        -4.3100    2.0280   -0.6330 hn        1 MOL      0.068457
     69 H29        -7.0250    1.7220   -1.4070 h1        1 MOL      0.139613
     70 H30        -4.9990    1.5490   -2.9660 hc        1 MOL      0.131847
     71 H31        -6.4620    0.5030   -3.2010 hc        1 MOL      0.131847
     72 H32        -5.5230   -1.5070   -4.0710 hn        1 MOL      0.322085
     73 H33        -4.2790   -2.2890   -3.2180 hn        1 MOL      0.322085
     74 N8         -5.9700   -0.3420    0.8320 n         1 MOL      0.048643
     75 C23        -6.2740   -1.3500    1.8750 c3        1 MOL     -0.219216
     76 C24        -5.3980   -2.5710    1.7750 c         1 MOL      0.584186
     77 O12        -5.8520   -3.6910    2.1410 o         1 MOL     -0.530024
     78 H34        -5.2630    0.3520    1.0340 hn        1 MOL      0.156857
     79 H35        -7.3400   -1.5760    1.8270 h1        1 MOL      0.104130
     80 H36        -6.1540   -0.8830    2.8480 h1        1 MOL      0.104130
     81 N9         -4.1440   -2.3800    1.3200 n         1 MOL     -0.534723
     82 C25        -3.0530   -3.3570    1.2160 c3        1 MOL      0.390156
     83 C26        -1.6810   -2.6810    1.2630 c         1 MOL      0.405999
     84 O13        -1.5390   -1.4700    0.9520 o         1 MOL     -0.620340
     85 C27        -3.2790   -4.1070   -0.1030 c3        1 MOL     -0.193940
     86 C28        -4.6840   -4.6640   -0.4080 ca        1 MOL      0.015403
     87 C29        -5.5890   -3.9970   -1.2460 ca        1 MOL     -0.101290
     88 C30        -5.0110   -5.9570   -0.0180 ca        1 MOL     -0.101290
     89 C31        -6.7190   -4.5890   -1.7840 ca        1 MOL     -0.310837
     90 C32        -6.1900   -6.6070   -0.4430 ca        1 MOL     -0.310837
     91 C33        -7.0310   -5.9410   -1.3280 ca        1 MOL      0.394156
     92 O14        -8.1560   -6.5080   -1.8320 oh        1 MOL     -0.497388
     93 H37        -3.9330   -1.4040    1.2660 hn        1 MOL      0.288207
     94 H38        -3.1030   -4.0590    2.0420 h1        1 MOL     -0.008772
     95 H39        -2.4700   -4.8260   -0.1890 hc        1 MOL      0.041194
     96 H40        -3.1920   -3.4040   -0.9310 hc        1 MOL      0.041194
     97 H41        -5.4140   -2.9610   -1.5090 ha        1 MOL      0.113655
     98 H42        -4.3650   -6.4640    0.6860 ha        1 MOL      0.113655
     99 H43        -7.4020   -4.1050   -2.4550 ha        1 MOL      0.158461
    100 H44        -6.4690   -7.5810   -0.0770 ha        1 MOL      0.158461
    101 H45        -8.3670   -7.3700   -1.4720 ho        1 MOL      0.364451
    102 N10        -0.6060   -3.3400    1.6520 n         1 MOL     -0.413648
    103 C34         0.7340   -2.8190    1.7130 c3        1 MOL     -0.151514
    104 C35         1.6770   -3.7140    0.7970 c         1 MOL      0.562030
    105 O15         1.6190   -4.9540    0.8240 o         1 MOL     -0.564222
    106 C36         1.1900   -2.8050    3.2490 c3        1 MOL      0.099610
    107 C37         0.2560   -1.8680    3.9310 c3        1 MOL      0.261717
    108 C38         2.6530   -2.4240    3.2370 c3        1 MOL      0.002150
    109 C39         0.6490   -1.3430    5.3550 c3        1 MOL     -0.481696
    110 H46        -0.7770   -4.2490    2.0640 hn        1 MOL      0.293078
    111 H47         0.7950   -1.7810    1.3860 h1        1 MOL      0.081127
    112 H48         1.1970   -3.7710    3.7500 hc        1 MOL      0.003001
    113 H49        -0.7330   -2.3320    3.9990 hc        1 MOL     -0.020486
    114 H50         0.1430   -0.9900    3.2970 hc        1 MOL     -0.020486
    115 H51         2.9720   -2.2310    4.2600 hc        1 MOL     -0.019131
    116 H52         3.3360   -3.1500    2.7960 hc        1 MOL     -0.019131
    117 H53         2.7890   -1.5500    2.6020 hc        1 MOL     -0.019131
    118 H54        -0.1970   -0.7860    5.7800 hc        1 MOL      0.116046
    119 H55         1.0820   -2.1170    5.9770 hc        1 MOL      0.116046
    120 H56         1.2790   -0.5140    5.0460 hc        1 MOL      0.116046
    121 N11         2.4530   -3.0730   -0.0200 n         1 MOL     -0.378091
    122 C40         3.4980   -3.6750   -0.8550 c3        1 MOL      0.090369
    123 C41         4.9590   -3.4880   -0.4100 c         1 MOL      0.500800
    124 O16         5.1440   -2.6760    0.4960 o         1 MOL     -0.386987
    125 C42         3.2950   -3.2060   -2.3140 c3        1 MOL     -0.289540
    126 O17         3.7620   -1.9120   -2.5140 oh        1 MOL     -0.452495
    127 H57         2.3140   -2.0860   -0.1650 hn        1 MOL      0.440555
    128 H58         3.3030   -4.7580   -0.8400 h1        1 MOL      0.049393
    129 H59         2.2390   -3.1280   -2.5730 h1        1 MOL      0.119894
    130 H60         3.8840   -3.8840   -2.9320 h1        1 MOL      0.119894
    131 H61         3.2910   -1.5960   -3.2860 ho        1 MOL      0.387955
    132 N12         5.8520   -4.2290   -0.9210 n         1 MOL     -0.482281
    133 C43         7.3610   -4.0760   -0.7290 c3        1 MOL      0.106042
    134 C44         7.8390   -2.6250   -1.0030 c         1 MOL      0.513091
    135 O18         8.6230   -2.0870   -0.2580 o         1 MOL     -0.505960
    136 C45         8.0670   -5.2080   -1.5320 c3        1 MOL     -0.317286
    137 H62         5.5980   -4.9830   -1.5490 hn        1 MOL      0.317941
    138 H63         7.6130   -4.1540    0.3260 h1        1 MOL      0.091424
    139 H64         7.8560   -5.0650   -2.5890 hc        1 MOL      0.103017
    140 H65         9.1210   -5.2340   -1.2770 hc        1 MOL      0.103017
    141 H66         7.6690   -6.2010   -1.2940 hc        1 MOL      0.103017
    142 N13         7.3640   -2.0670   -2.0580 n         1 MOL     -0.424940
    143 C46         7.8080   -0.6830   -2.3540 c3        1 MOL      0.109433
    144 C47         7.2630    0.2860   -1.2430 c         1 MOL      0.341230
    145 O19         7.9520    1.2100   -0.8780 o         1 MOL     -0.485082
    146 C48         7.4110   -0.2290   -3.7670 c3        1 MOL     -0.222539
    147 H67         6.8030   -2.5850   -2.7100 hn        1 MOL      0.296620
    148 H68         8.9020   -0.6440   -2.2620 h1        1 MOL      0.100503
    149 H69         6.3320   -0.0890   -3.8710 hc        1 MOL      0.059230
    150 H70         7.9450    0.6700   -4.0860 hc        1 MOL      0.059230
    151 H71         7.7290   -1.0080   -4.4510 hc        1 MOL      0.059230
    152 N14         5.9870    0.0980   -0.8120 n         1 MOL     -0.062883
    153 C49         5.3760    0.8440    0.2910 c3        1 MOL     -0.123997
    154 C50         6.1040    0.5630    1.6090 c         1 MOL      0.478955
    155 O20         6.3180    1.4830    2.3810 o         1 MOL     -0.540423
    156 C51         3.8740    0.4310    0.2650 c3        1 MOL      0.105617
    157 C52         3.2000    1.1020   -0.9740 c3        1 MOL     -0.142147
    158 C53         1.6390    0.6810   -1.0790 c         1 MOL      0.662915
    159 O21         1.2020   -0.4500   -0.7250 o         1 MOL     -0.719760
    160 O22         0.8130    1.4910   -1.5840 o         1 MOL     -0.719760
    161 H72         5.5060   -0.7130   -1.1540 hn        1 MOL      0.060752
    162 H73         5.3650    1.9300    0.2510 h1        1 MOL      0.069276
    163 H74         3.3800    0.7560    1.1790 hc        1 MOL      0.021545
    164 H75         3.8240   -0.6450    0.0630 hc        1 MOL      0.021545
    165 H76         3.7970    0.8290   -1.8470 hc        1 MOL     -0.030436
    166 H77         3.2660    2.1790   -0.9160 hc        1 MOL     -0.030436
    167 N15         6.5830   -0.6390    1.8120 n         1 MOL     -0.020683
    168 C54         7.3710   -0.8350    2.9960 c3        1 MOL     -0.470128
    169 H78         6.7450   -0.6900    3.8760 h1        1 MOL      0.156908
    170 H79         7.7750   -1.8470    3.0020 h1        1 MOL      0.156908
    171 H80         8.1900   -0.1150    3.0120 h1        1 MOL      0.156908
    172 H81         6.2850   -1.3930    1.2100 hn        1 MOL      0.091376
    173 Ca1        -1.3640    0.1090   -1.1310 Ca        1 MOL      1.780804
    174 O23        -0.9610   -2.4440   -1.8860 oh        1 MOL     -0.840553
    175 H82        -0.4120   -2.5610   -2.6630 ho        1 MOL      0.408940
    176 H83        -1.0960   -3.3350   -1.5580 ho        1 MOL      0.408940
    177 O24        -0.8090   -0.1220   -4.0080 oh        1 MOL     -0.840553
    178 H84         0.1110    0.0460   -4.2240 ho        1 MOL      0.408940
    179 H85        -1.2930    0.2610   -4.7460 ho        1 MOL      0.408940
@<TRIPOS>BOND
     1    1    2 1   
     2    1    4 1   
     3    1    5 1   
     4    1    6 1   
     5    2    3 2   
     6    2    7 1   
     7    7    8 1   
     8    7   15 1   
     9    8    9 1   
    10    8   11 1   
    11    8   16 1   
    12    9   10 2   
    13    9   19 1   
    14   11   12 1   
    15   11   17 1   
    16   11   18 1   
    17   12   13 1   
    18   12   14 1   
    19   19   20 1   
    20   19   28 1   
    21   20   21 1   
    22   20   23 1   
    23   20   29 1   
    24   21   22 2   
    25   21   41 1   
    26   23   24 1   
    27   23   30 1   
    28   23   31 1   
    29   24   25 1   
    30   24   32 1   
    31   24   33 1   
    32   25   26 1   
    33   25   34 1   
    34   25   35 1   
    35   26   27 1   
    36   26   36 1   
    37   26   37 1   
    38   27   38 1   
    39   27   39 1   
    40   27   40 1   
    41   41   42 1   
    42   41   49 1   
    43   42   43 1   
    44   42   45 1   
    45   42   50 1   
    46   43   44 2   
    47   43   53 1   
    48   45   46 1   
    49   45   51 1   
    50   45   52 1   
    51   46   47 1   
    52   46   48 1   
    53   53   54 1   
    54   53   57 1   
    55   54   55 1   
    56   54   58 1   
    57   54   59 1   
    58   55   56 2   
    59   55   60 1   
    60   60   61 1   
    61   60   68 1   
    62   61   62 1   
    63   61   64 1   
    64   61   69 1   
    65   62   63 2   
    66   62   74 1   
    67   64   65 1   
    68   64   70 1   
    69   64   71 1   
    70   65   66 1   
    71   65   67 2   
    72   66   72 1   
    73   66   73 1   
    74   74   75 1   
    75   74   78 1   
    76   75   76 1   
    77   75   79 1   
    78   75   80 1   
    79   76   77 2   
    80   76   81 1   
    81   81   82 1   
    82   81   93 1   
    83   82   83 1   
    84   82   85 1   
    85   82   94 1   
    86   83   84 2   
    87   83  102 1   
    88   85   86 1   
    89   85   95 1   
    90   85   96 1   
    91   86   87 ar  
    92   86   88 ar  
    93   87   89 ar  
    94   87   97 1   
    95   88   90 ar  
    96   88   98 1   
    97   89   91 ar  
    98   89   99 1   
    99   90   91 ar  
   100   90  100 1   
   101   91   92 1   
   102   92  101 1   
   103  102  103 1   
   104  102  110 1   
   105  103  104 1   
   106  103  106 1   
   107  103  111 1   
   108  104  105 2   
   109  104  121 1   
   110  106  107 1   
   111  106  108 1   
   112  106  112 1   
   113  107  109 1   
   114  107  113 1   
   115  107  114 1   
   116  108  115 1   
   117  108  116 1   
   118  108  117 1   
   119  109  118 1   
   120  109  119 1   
   121  109  120 1   
   122  121  122 1   
   123  121  127 1   
   124  122  123 1   
   125  122  125 1   
   126  122  128 1   
   127  123  124 2   
   128  123  132 1   
   129  125  126 1   
   130  125  129 1   
   131  125  130 1   
   132  126  131 1   
   133  132  133 1   
   134  132  137 1   
   135  133  134 1   
   136  133  136 1   
   137  133  138 1   
   138  134  135 2   
   139  134  142 1   
   140  136  139 1   
   141  136  140 1   
   142  136  141 1   
   143  142  143 1   
   144  142  147 1   
   145  143  144 1   
   146  143  146 1   
   147  143  148 1   
   148  144  145 2   
   149  144  152 1   
   150  146  149 1   
   151  146  150 1   
   152  146  151 1   
   153  152  153 1   
   154  152  161 1   
   155  153  154 1   
   156  153  156 1   
   157  153  162 1   
   158  154  155 2   
   159  154  167 1   
   160  156  157 1   
   161  156  163 1   
   162  156  164 1   
   163  157  158 1   
   164  157  165 1   
   165  157  166 1   
   166  158  159 1   
   167  158  160 1   
   168  167  168 1   
   169  167  172 1   
   170  168  169 1   
   171  168  170 1   
   172  168  171 1   
   173  174  175 1   
   174  174  176 1   
   175  177  178 1   
   176  177  179 1   
@<TRIPOS>SUBSTRUCTURE
     1 MOL         1 TEMP              0 ****  ****    0 ROOT
