@<TRIPOS>MOLECULE
MOL
  183   181     1     0     0
SMALL
resp


@<TRIPOS>ATOM
      1 C1         -0.2270    1.5640    6.2870 c3        1 MOL     -0.288741
      2 C2         -0.7420    1.6870    4.8390 c         1 MOL      0.703022
      3 O1         -0.1380    2.3440    3.9980 o         1 MOL     -0.538051
      4 H1         -0.5160    2.4510    6.8510 hc        1 MOL      0.063096
      5 H2         -0.6610    0.6790    6.7530 hc        1 MOL      0.063096
      6 H3          0.8600    1.4760    6.2820 hc        1 MOL      0.063096
      7 N1         -1.9890    1.2750    4.6300 n         1 MOL     -0.587904
      8 C3         -2.6350    1.2720    3.3010 c3        1 MOL      0.114712
      9 C4         -3.1150    2.7110    2.8730 c         1 MOL      0.548666
     10 O2         -3.8810    3.4130    3.6070 o         1 MOL     -0.603164
     11 C5         -3.8380    0.2910    3.2510 c3        1 MOL     -0.099370
     12 C6         -4.4070    0.1710    1.7620 c         1 MOL      0.793656
     13 O3         -5.6170   -0.1560    1.6140 o         1 MOL     -0.680046
     14 O4         -3.7990    0.6950    0.7900 o         1 MOL     -0.680046
     15 H4         -2.4630    0.8010    5.3780 hn        1 MOL      0.312823
     16 H5         -1.9230    0.7900    2.6420 h1        1 MOL      0.024283
     17 H6         -4.5680    0.6000    3.9970 hc        1 MOL      0.008973
     18 H7         -3.5010   -0.6840    3.6030 hc        1 MOL      0.008973
     19 N2         -2.6500    3.1560    1.7420 n         1 MOL     -0.217201
     20 C7         -2.8280    4.5360    1.2760 c3        1 MOL     -0.004016
     21 C8         -3.9740    4.7190    0.3390 c         1 MOL      0.522744
     22 O5         -4.7100    5.7210    0.3900 o         1 MOL     -0.586957
     23 C9         -1.4540    4.9940    0.7040 c3        1 MOL      0.213031
     24 C10        -0.3160    5.1320    1.7390 c3        1 MOL      0.155692
     25 C11        -1.7520    6.3510   -0.0780 c3        1 MOL     -0.373899
     26 C12         0.9750    5.7590    1.2340 c3        1 MOL     -0.087661
     27 H8         -2.1760    2.5530    1.0920 hn        1 MOL      0.088290
     28 H9         -2.9160    5.2440    2.1110 h1        1 MOL      0.044435
     29 H10        -1.0400    4.2980   -0.0220 hc        1 MOL      0.000995
     30 H11        -0.1780    4.2230    2.3250 hc        1 MOL     -0.040045
     31 H12        -0.6520    5.7710    2.5530 hc        1 MOL     -0.040045
     32 H13        -2.0810    7.0580    0.6850 hc        1 MOL      0.077304
     33 H14        -0.8860    6.6800   -0.6640 hc        1 MOL      0.077304
     34 H15        -2.4890    6.1490   -0.8400 hc        1 MOL      0.077304
     35 H16         1.2790    5.3200    0.2830 hc        1 MOL      0.003138
     36 H17         0.8040    6.8420    1.1580 hc        1 MOL      0.003138
     37 H18         1.7920    5.6730    1.9450 hc        1 MOL      0.003138
     38 N3         -4.3250    3.6720   -0.4580 n         1 MOL     -0.360914
     39 C13        -5.3510    3.7350   -1.5660 c3        1 MOL      0.051458
     40 C14        -6.5510    2.8090   -1.4100 c         1 MOL      0.469880
     41 O6         -7.3870    2.8540   -2.3240 o         1 MOL     -0.523068
     42 C15        -4.6510    3.7650   -2.9890 c3        1 MOL     -0.110557
     43 C16        -3.6150    2.6140   -3.1950 c         1 MOL      0.796295
     44 O7         -3.3960    1.7990   -2.2820 o         1 MOL     -0.705735
     45 O8         -3.1460    2.3520   -4.3060 o         1 MOL     -0.705735
     46 H19        -3.7670    2.8330   -0.4800 hn        1 MOL      0.138535
     47 H20        -5.7840    4.7250   -1.4820 h1        1 MOL      0.063873
     48 H21        -3.9210    4.5690   -3.0520 hc        1 MOL      0.015957
     49 H22        -5.4490    3.7780   -3.7330 hc        1 MOL      0.015957
     50 N4         -6.7750    2.0900   -0.2770 n         1 MOL     -0.249755
     51 C17        -7.9970    1.4570    0.1460 c3        1 MOL     -0.243138
     52 C18        -8.2120    0.0710   -0.5790 c         1 MOL      0.478399
     53 O9         -9.3630   -0.1910   -1.0040 o         1 MOL     -0.608189
     54 H23        -5.9650    2.0790    0.3320 hn        1 MOL      0.244491
     55 H24        -8.8630    2.0690   -0.0900 h1        1 MOL      0.116932
     56 H25        -7.8660    1.3660    1.2270 h1        1 MOL      0.116932
     57 N5         -7.2400   -0.8170   -0.6440 n         1 MOL      0.036772
     58 C19        -7.3940   -2.1930   -1.1610 c3        1 MOL      0.097033
     59 C20        -7.1440   -3.2220   -0.0330 c         1 MOL      0.288952
     60 O10        -7.5490   -4.3820   -0.1880 o         1 MOL     -0.534656
     61 C21        -6.5380   -2.4200   -2.3920 c3        1 MOL     -0.279991
     62 C22        -5.0840   -1.7690   -2.2090 c         1 MOL      0.506026
     63 O11        -4.5400   -1.1110   -3.0950 o         1 MOL     -0.593749
     64 O12        -4.5410   -1.7410   -1.0520 o         1 MOL     -0.593749
     65 H26        -6.3330   -0.7190   -0.2050 hn        1 MOL     -0.022271
     66 H27        -8.4000   -2.2880   -1.5690 h1        1 MOL      0.057575
     67 H28        -7.0380   -1.8390   -3.1750 hc        1 MOL      0.084804
     68 H29        -6.4380   -3.4930   -2.5770 hc        1 MOL      0.084804
     69 N6         -6.5130   -2.8240    1.0630 n         1 MOL     -0.172409
     70 C23        -6.1460   -3.8300    2.0570 c3        1 MOL      0.011153
     71 C24        -4.8690   -4.6750    1.8600 c         1 MOL      0.443172
     72 O13        -4.5710   -5.6160    2.5570 o         1 MOL     -0.590942
     73 H30        -6.1850   -1.8690    1.1080 hn        1 MOL      0.120950
     74 H31        -6.9980   -4.4440    2.3540 h1        1 MOL      0.041376
     75 H32        -5.9920   -3.3360    3.0160 h1        1 MOL      0.041376
     76 N7         -4.1200   -4.2230    0.9240 n         1 MOL     -0.227978
     77 C25        -2.7250   -4.6330    0.7220 c3        1 MOL      0.031153
     78 C26        -1.8020   -3.4040    0.7500 c         1 MOL      0.766704
     79 O14        -2.1430   -2.2510    0.5880 o         1 MOL     -0.818471
     80 C27        -2.6490   -5.5200   -0.4890 c3        1 MOL      0.026856
     81 C28        -2.6880   -4.8130   -1.8510 c3        1 MOL     -0.265950
     82 C29        -1.5020   -3.8520   -2.1910 c         1 MOL      0.554027
     83 N8         -0.3340   -4.4120   -2.5170 n         1 MOL     -0.728936
     84 O15        -1.6760   -2.6250   -2.2300 o         1 MOL     -0.536517
     85 H33        -4.4510   -3.4600    0.3440 hn        1 MOL      0.290201
     86 H34        -2.3730   -5.3270    1.4870 h1        1 MOL      0.034837
     87 H35        -3.4170   -6.2930   -0.4810 hc        1 MOL      0.000510
     88 H36        -1.7000   -6.0500   -0.4970 hc        1 MOL      0.000510
     89 H37        -3.5890   -4.1960   -1.9030 hc        1 MOL      0.093733
     90 H38        -2.8130   -5.6100   -2.5820 hc        1 MOL      0.093733
     91 H39        -0.2540   -5.4080   -2.6270 hn        1 MOL      0.346133
     92 H40         0.3640   -3.8070   -2.9250 hn        1 MOL      0.346133
     93 N9         -0.6210   -3.6890    1.2160 n         1 MOL     -0.558110
     94 C30         0.4280   -2.7160    1.5270 c3        1 MOL     -0.021142
     95 C31         1.7730   -3.0650    0.9290 c         1 MOL      0.361507
     96 O16         2.4320   -4.0470    1.2360 o         1 MOL     -0.549292
     97 C32         0.5550   -2.4860    3.0420 c3        1 MOL      0.251186
     98 C33         1.5530   -1.3490    3.4140 c3        1 MOL     -0.321615
     99 C34        -0.8340   -2.1600    3.6840 c3        1 MOL     -0.321615
    100 H41        -0.4540   -4.6470    1.4960 hn        1 MOL      0.311640
    101 H42         0.1200   -1.7710    1.0860 h1        1 MOL      0.190950
    102 H43         0.9810   -3.3670    3.5060 hc        1 MOL     -0.022950
    103 H44         2.5850   -1.6340    3.2390 hc        1 MOL      0.070513
    104 H45         1.3480   -0.4910    2.7680 hc        1 MOL      0.070513
    105 H46         1.5990   -1.1210    4.4770 hc        1 MOL      0.070513
    106 H47        -1.1700   -1.2390    3.2040 hc        1 MOL      0.070513
    107 H48        -1.5960   -2.9250    3.5340 hc        1 MOL      0.070513
    108 H49        -0.6810   -1.9050    4.7400 hc        1 MOL      0.070513
    109 N10         2.1640   -2.3260   -0.0800 n         1 MOL     -0.100339
    110 C35         3.2760   -2.4470   -0.9670 c3        1 MOL     -0.000427
    111 C36         4.5310   -1.9360   -0.3010 c         1 MOL      0.407454
    112 O17         4.5230   -1.1010    0.6410 o         1 MOL     -0.302662
    113 C37         3.0090   -1.6440   -2.2510 c3        1 MOL     -0.472228
    114 C38         1.8690   -2.1930   -3.1720 c         1 MOL      0.807177
    115 N11         0.7680   -1.4920   -3.2850 n         1 MOL     -0.853235
    116 O18         1.9100   -3.2520   -3.7260 o         1 MOL     -0.636790
    117 H50         1.5140   -1.6050   -0.3660 hn        1 MOL      0.219155
    118 H51         3.5640   -3.4480   -1.2770 h1        1 MOL      0.071141
    119 H52         3.8290   -1.8150   -2.9560 hc        1 MOL      0.130103
    120 H53         2.7640   -0.6170   -1.9570 hc        1 MOL      0.130103
    121 H54         0.6460   -0.6550   -2.7400 hn        1 MOL      0.409542
    122 H55         0.0860   -1.9170   -3.8940 hn        1 MOL      0.409542
    123 N12         5.7450   -2.2210   -0.8480 n         1 MOL     -0.526385
    124 C39         7.0200   -1.6290   -0.4490 c3        1 MOL      0.121994
    125 C40         6.9830   -0.0860   -0.4690 c         1 MOL      0.741252
    126 O19         7.2670    0.4900    0.5690 o         1 MOL     -0.573257
    127 C41         8.2130   -2.1710   -1.2250 c3        1 MOL     -0.078800
    128 C42         9.5510   -1.8150   -0.5780 ca        1 MOL     -0.020318
    129 C43        10.0040   -2.5560    0.5470 ca        1 MOL     -0.166053
    130 C44        10.3340   -0.7650   -1.0730 ca        1 MOL     -0.166053
    131 C45        11.2340   -2.3180    1.2000 ca        1 MOL     -0.220974
    132 C46        11.5250   -0.4590   -0.4230 ca        1 MOL     -0.220974
    133 C47        12.0210   -1.1680    0.7270 ca        1 MOL      0.310124
    134 O20        13.1530   -0.7210    1.2910 oh        1 MOL     -0.504348
    135 H56         5.7830   -2.8510   -1.6310 hn        1 MOL      0.301713
    136 H57         7.2080   -1.9860    0.5640 h1        1 MOL      0.067518
    137 H58         8.1180   -1.8280   -2.2540 hc        1 MOL      0.037134
    138 H59         8.1130   -3.2510   -1.3450 hc        1 MOL      0.037134
    139 H60         9.3540   -3.3260    0.9440 ha        1 MOL      0.140493
    140 H61         9.9720   -0.2070   -1.9260 ha        1 MOL      0.140493
    141 H62        11.5130   -2.8630    2.0840 ha        1 MOL      0.131716
    142 H63        12.1950    0.2680   -0.8560 ha        1 MOL      0.131716
    143 H64        13.6280    0.0090    0.8930 ho        1 MOL      0.380841
    144 N13         6.5170    0.5730   -1.5540 n         1 MOL     -0.694839
    145 C48         6.4280    2.0540   -1.4960 c3        1 MOL      0.247884
    146 C49         5.6180    2.5210   -0.2670 c         1 MOL      0.346364
    147 O21         5.8270    3.5630    0.2980 o         1 MOL     -0.520322
    148 C50         6.0010    2.6440   -2.8340 c3        1 MOL     -0.051637
    149 C51         4.4810    2.6110   -3.2110 c3        1 MOL     -0.108100
    150 C52         4.1660    3.0520   -4.6180 c         1 MOL      0.738934
    151 O22         3.6080    2.2950   -5.3690 o         1 MOL     -0.747495
    152 O23         4.5780    4.1670   -4.9920 o         1 MOL     -0.747495
    153 H65         6.2560    0.0530   -2.3770 hn        1 MOL      0.326874
    154 H66         7.4410    2.4240   -1.3610 h1        1 MOL      0.001310
    155 H67         6.5750    2.1110   -3.5910 hc        1 MOL      0.010947
    156 H68         6.3160    3.6950   -2.8530 hc        1 MOL      0.010947
    157 H69         3.9230    3.2300   -2.5160 hc        1 MOL     -0.007646
    158 H70         4.0990    1.5950   -3.1280 hc        1 MOL     -0.007646
    159 N14         4.5620    1.7710    0.0920 n         1 MOL     -0.015192
    160 C53         3.8000    2.0100    1.2750 c3        1 MOL     -0.202903
    161 C54         4.5180    1.6590    2.6200 c         1 MOL      0.462452
    162 O24         4.2740    2.3840    3.6040 o         1 MOL     -0.568459
    163 C55         2.4030    1.3660    1.0790 c3        1 MOL      0.405272
    164 C56         1.6030    1.7240   -0.1480 c3        1 MOL     -0.114147
    165 C57         0.2840    0.8970   -0.1810 c         1 MOL      0.602947
    166 O25        -0.8410    1.3560    0.2030 o         1 MOL     -0.677757
    167 O26         0.3180   -0.1680   -0.8050 o         1 MOL     -0.677757
    168 H71         4.2720    1.0410   -0.5470 hn        1 MOL      0.151152
    169 H72         3.5740    3.0790    1.2850 h1        1 MOL      0.101564
    170 H73         1.9080    1.6330    2.0180 hc        1 MOL     -0.086311
    171 H74         2.6190    0.3020    1.0820 hc        1 MOL     -0.086311
    172 H75         2.2450    1.6390   -1.0210 hc        1 MOL      0.004883
    173 H76         1.4690    2.7950    0.0360 hc        1 MOL      0.004883
    174 N15         5.3220    0.5740    2.6610 n         1 MOL     -0.026808
    175 C58         6.1520    0.0380    3.7700 c3        1 MOL     -0.364353
    176 H77         6.0690    0.6960    4.6360 h1        1 MOL      0.119997
    177 H78         5.8030   -0.9590    4.0370 h1        1 MOL      0.119997
    178 H79         7.1930   -0.0130    3.4530 h1        1 MOL      0.119997
    179 H80         5.2300    0.0400    1.8090 hn        1 MOL      0.029753
    180 Ca1        -2.4440   -0.2120   -1.0880 Ca        1 MOL      1.770231
    181 O27        -1.2650    0.4310   -3.5920 oh        1 MOL     -0.907599
    182 H81        -1.7970    1.1880   -3.8500 ho        1 MOL      0.415483
    183 H82        -0.5600    0.3950   -4.2400 ho        1 MOL      0.415483
@<TRIPOS>BOND
     1    1    2 1   
     2    1    4 1   
     3    1    5 1   
     4    1    6 1   
     5    2    3 2   
     6    2    7 1   
     7    7    8 1   
     8    7   15 1   
     9    8    9 1   
    10    8   11 1   
    11    8   16 1   
    12    9   10 2   
    13    9   19 1   
    14   11   12 1   
    15   11   17 1   
    16   11   18 1   
    17   12   13 1   
    18   12   14 1   
    19   19   20 1   
    20   19   27 1   
    21   20   21 1   
    22   20   23 1   
    23   20   28 1   
    24   21   22 2   
    25   21   38 1   
    26   23   24 1   
    27   23   25 1   
    28   23   29 1   
    29   24   26 1   
    30   24   30 1   
    31   24   31 1   
    32   25   32 1   
    33   25   33 1   
    34   25   34 1   
    35   26   35 1   
    36   26   36 1   
    37   26   37 1   
    38   38   39 1   
    39   38   46 1   
    40   39   40 1   
    41   39   42 1   
    42   39   47 1   
    43   40   41 2   
    44   40   50 1   
    45   42   43 1   
    46   42   48 1   
    47   42   49 1   
    48   43   44 1   
    49   43   45 1   
    50   50   51 1   
    51   50   54 1   
    52   51   52 1   
    53   51   55 1   
    54   51   56 1   
    55   52   53 2   
    56   52   57 1   
    57   57   58 1   
    58   57   65 1   
    59   58   59 1   
    60   58   61 1   
    61   58   66 1   
    62   59   60 2   
    63   59   69 1   
    64   61   62 1   
    65   61   67 1   
    66   61   68 1   
    67   62   63 1   
    68   62   64 1   
    69   69   70 1   
    70   69   73 1   
    71   70   71 1   
    72   70   74 1   
    73   70   75 1   
    74   71   72 2   
    75   71   76 1   
    76   76   77 1   
    77   76   85 1   
    78   77   78 1   
    79   77   80 1   
    80   77   86 1   
    81   78   79 2   
    82   78   93 1   
    83   80   81 1   
    84   80   87 1   
    85   80   88 1   
    86   81   82 1   
    87   81   89 1   
    88   81   90 1   
    89   82   83 1   
    90   82   84 2   
    91   83   91 1   
    92   83   92 1   
    93   93   94 1   
    94   93  100 1   
    95   94   95 1   
    96   94   97 1   
    97   94  101 1   
    98   95   96 2   
    99   95  109 1   
   100   97   98 1   
   101   97   99 1   
   102   97  102 1   
   103   98  103 1   
   104   98  104 1   
   105   98  105 1   
   106   99  106 1   
   107   99  107 1   
   108   99  108 1   
   109  109  110 1   
   110  109  117 1   
   111  110  111 1   
   112  110  113 1   
   113  110  118 1   
   114  111  112 2   
   115  111  123 1   
   116  113  114 1   
   117  113  119 1   
   118  113  120 1   
   119  114  115 1   
   120  114  116 2   
   121  115  121 1   
   122  115  122 1   
   123  123  124 1   
   124  123  135 1   
   125  124  125 1   
   126  124  127 1   
   127  124  136 1   
   128  125  126 2   
   129  125  144 1   
   130  127  128 1   
   131  127  137 1   
   132  127  138 1   
   133  128  129 ar  
   134  128  130 ar  
   135  129  131 ar  
   136  129  139 1   
   137  130  132 ar  
   138  130  140 1   
   139  131  133 ar  
   140  131  141 1   
   141  132  133 ar  
   142  132  142 1   
   143  133  134 1   
   144  134  143 1   
   145  144  145 1   
   146  144  153 1   
   147  145  146 1   
   148  145  148 1   
   149  145  154 1   
   150  146  147 2   
   151  146  159 1   
   152  148  149 1   
   153  148  155 1   
   154  148  156 1   
   155  149  150 1   
   156  149  157 1   
   157  149  158 1   
   158  150  151 1   
   159  150  152 1   
   160  159  160 1   
   161  159  168 1   
   162  160  161 1   
   163  160  163 1   
   164  160  169 1   
   165  161  162 2   
   166  161  174 1   
   167  163  164 1   
   168  163  170 1   
   169  163  171 1   
   170  164  165 1   
   171  164  172 1   
   172  164  173 1   
   173  165  166 1   
   174  165  167 1   
   175  174  175 1   
   176  174  179 1   
   177  175  176 1   
   178  175  177 1   
   179  175  178 1   
   180  181  182 1   
   181  181  183 1   
@<TRIPOS>SUBSTRUCTURE
     1 MOL         1 TEMP              0 ****  ****    0 ROOT
