@<TRIPOS>MOLECULE
MOL
  189   185     1     0     0
SMALL
resp


@<TRIPOS>ATOM
      1 C1         -0.2700   -2.8530    6.2370 c3        1 MOL     -0.373851
      2 C2          0.6020   -2.5850    5.0000 c         1 MOL      0.739098
      3 O1          0.9540   -1.4440    4.8120 o         1 MOL     -0.627508
      4 H1         -1.1850   -2.2630    6.1700 hc        1 MOL      0.091254
      5 H2         -0.5230   -3.9120    6.2810 hc        1 MOL      0.091254
      6 H3          0.2780   -2.5710    7.1360 hc        1 MOL      0.091254
      7 N1          1.0350   -3.5300    4.2250 n         1 MOL     -0.546328
      8 C3          1.8760   -3.3820    3.0440 c3        1 MOL      0.327772
      9 C4          1.7390   -4.6550    2.1790 c         1 MOL      0.518723
     10 O2          1.5210   -5.7830    2.5950 o         1 MOL     -0.568425
     11 C5          3.3430   -3.1470    3.5050 c3        1 MOL     -0.554030
     12 C6          4.2030   -2.7880    2.3250 c         1 MOL      0.828961
     13 O3          5.3950   -2.9400    2.4640 o         1 MOL     -0.662714
     14 O4          3.7560   -2.2650    1.2680 o         1 MOL     -0.662714
     15 H4          0.7600   -4.4550    4.5470 hn        1 MOL      0.270173
     16 H5          1.5790   -2.5760    2.3900 h1        1 MOL     -0.013119
     17 H6          3.5620   -4.1410    3.8850 hc        1 MOL      0.137561
     18 H7          3.3120   -2.3780    4.2750 hc        1 MOL      0.137561
     19 N2          1.8730   -4.3910    0.8340 n         1 MOL     -0.399208
     20 C7          1.8860   -5.4450   -0.1500 c3        1 MOL      0.004176
     21 C8          2.9470   -5.2660   -1.3010 c         1 MOL      0.466094
     22 O5          3.0260   -6.1360   -2.2220 o         1 MOL     -0.507077
     23 C9          0.4880   -5.6490   -0.7690 c3        1 MOL      0.137089
     24 C10         0.1850   -6.9860   -1.6060 c3        1 MOL     -0.025825
     25 C11        -0.0420   -4.4350   -1.5110 c3        1 MOL     -0.370880
     26 C12         0.5020   -8.2760   -0.8770 c3        1 MOL     -0.097430
     27 H8          1.9890   -3.4260    0.5670 hn        1 MOL      0.262340
     28 H9          2.2240   -6.4120    0.2250 h1        1 MOL      0.077816
     29 H10        -0.1530   -5.7670    0.1080 hc        1 MOL      0.032330
     30 H11         0.5790   -6.9770   -2.6270 hc        1 MOL      0.019253
     31 H12        -0.8940   -6.9880   -1.5650 hc        1 MOL      0.019253
     32 H13        -0.9690   -4.5650   -2.0830 hc        1 MOL      0.100232
     33 H14        -0.2300   -3.6790   -0.7570 hc        1 MOL      0.100232
     34 H15         0.7410   -4.1300   -2.2060 hc        1 MOL      0.100232
     35 H16         1.5870   -8.4170   -0.8690 hc        1 MOL      0.005592
     36 H17         0.0840   -8.2410    0.1270 hc        1 MOL      0.005592
     37 H18         0.0420   -9.1100   -1.3930 hc        1 MOL      0.005592
     38 N3          3.8000   -4.2070   -1.2070 n         1 MOL     -0.390322
     39 C13         4.9030   -3.9720   -2.1300 c3        1 MOL      0.033940
     40 C14         6.2170   -3.3230   -1.5620 c         1 MOL      0.431812
     41 O6          7.2150   -3.4540   -2.2340 o         1 MOL     -0.549338
     42 C15         4.3370   -3.1020   -3.3210 c3        1 MOL     -0.192101
     43 C16         3.4880   -1.9040   -2.9500 c         1 MOL      0.790928
     44 O7          3.6210   -1.2290   -1.9330 o         1 MOL     -0.727981
     45 O8          2.6770   -1.4550   -3.8050 o         1 MOL     -0.727981
     46 H19         3.7550   -3.5700   -0.4230 hn        1 MOL      0.263123
     47 H20         5.1490   -4.9630   -2.4960 h1        1 MOL      0.058501
     48 H21         3.6900   -3.7480   -3.9150 hc        1 MOL      0.056185
     49 H22         5.1390   -2.7200   -3.9480 hc        1 MOL      0.056185
     50 N4          6.1550   -2.6020   -0.4090 n         1 MOL     -0.075938
     51 C17         7.2720   -1.8290    0.2120 c3        1 MOL     -0.179189
     52 C18         7.6430   -0.5350   -0.4850 c         1 MOL      0.483054
     53 O9          8.7560   -0.0060   -0.3840 o         1 MOL     -0.603512
     54 H23         5.3460   -2.6580    0.1960 hn        1 MOL      0.042630
     55 H24         8.1800   -2.4360    0.2380 h1        1 MOL      0.089433
     56 H25         6.9020   -1.5350    1.1960 h1        1 MOL      0.089433
     57 N5          6.7430    0.0180   -1.2730 n         1 MOL     -0.141808
     58 C19         6.9500    1.3180   -1.8860 c3        1 MOL     -0.022612
     59 C20         7.0770    2.4830   -0.8790 c         1 MOL      0.420219
     60 O10         7.5110    3.5790   -1.2410 o         1 MOL     -0.526515
     61 C21         5.8240    1.6670   -2.9320 c3        1 MOL     -0.400485
     62 C22         4.4000    1.7100   -2.3330 c         1 MOL      0.858547
     63 O11         4.2540    1.6890   -1.0760 o         1 MOL     -0.707803
     64 O12         3.4690    1.8270   -3.1540 o         1 MOL     -0.707803
     65 H26         5.9560   -0.5300   -1.6150 hn        1 MOL      0.173608
     66 H27         7.8880    1.2710   -2.4370 h1        1 MOL      0.091850
     67 H28         5.8780    0.8990   -3.6940 hc        1 MOL      0.113392
     68 H29         5.9560    2.6660   -3.3650 hc        1 MOL      0.113392
     69 N6          6.7840    2.2930    0.4460 n         1 MOL     -0.104299
     70 C23         6.7010    3.3340    1.4210 c3        1 MOL     -0.298142
     71 C24         5.5980    4.3660    1.3150 c         1 MOL      0.590902
     72 O13         5.6630    5.4700    1.9280 o         1 MOL     -0.590476
     73 H30         6.4100    1.3790    0.6820 hn        1 MOL      0.138540
     74 H31         7.6790    3.8220    1.5260 h1        1 MOL      0.114188
     75 H32         6.4410    2.8280    2.3460 h1        1 MOL      0.114188
     76 N7          4.4400    3.9890    0.7060 n         1 MOL     -0.340388
     77 C25         3.1940    4.7770    0.6980 c3        1 MOL     -0.050033
     78 C26         2.0110    3.8110    0.9070 c         1 MOL      0.446108
     79 O14         2.0930    2.6370    0.6070 o         1 MOL     -0.520188
     80 C27         2.9890    5.4860   -0.6710 c3        1 MOL      0.085025
     81 C28         4.0620    6.4500   -0.9840 c3        1 MOL     -0.289325
     82 C29         3.6020    7.3190   -2.1460 c         1 MOL      0.665512
     83 N8          3.3620    6.8170   -3.2820 n         1 MOL     -0.752496
     84 O15         3.4160    8.5460   -2.0170 o         1 MOL     -0.618045
     85 H33         4.3570    3.0420    0.3660 hn        1 MOL      0.267743
     86 H34         3.0050    5.5080    1.4780 h1        1 MOL      0.061977
     87 H35         2.0110    5.9720   -0.7020 hc        1 MOL      0.015309
     88 H36         2.9790    4.6800   -1.4100 hc        1 MOL      0.015309
     89 H37         4.9940    5.9320   -1.1900 hc        1 MOL      0.101804
     90 H38         4.2660    7.0830   -0.1190 hc        1 MOL      0.101804
     91 H39         3.3350    5.8210   -3.4520 hn        1 MOL      0.355309
     92 H40         3.1720    7.4180   -4.0780 hn        1 MOL      0.355309
     93 N9          0.8580    4.4580    1.2640 n         1 MOL     -0.369712
     94 C30        -0.3190    3.6350    1.5300 c3        1 MOL     -0.037109
     95 C31        -1.2630    3.6870    0.3780 c         1 MOL      0.412662
     96 O16        -1.5970    4.7390   -0.1750 o         1 MOL     -0.576640
     97 C32        -1.0160    4.0850    2.8840 c3        1 MOL      0.109353
     98 C33        -2.1900    3.0960    3.2010 c3        1 MOL     -0.179490
     99 C34        -0.0360    3.8850    4.0870 c3        1 MOL     -0.179490
    100 H41         0.9060    5.4100    1.5960 hn        1 MOL      0.280729
    101 H42        -0.0660    2.5900    1.7090 h1        1 MOL      0.191650
    102 H43        -1.3910    5.1020    2.8550 hc        1 MOL      0.011240
    103 H44        -1.7580    2.1130    3.3670 hc        1 MOL      0.036871
    104 H45        -2.7810    3.4310    4.0590 hc        1 MOL      0.036871
    105 H46        -2.8530    3.1240    2.3340 hc        1 MOL      0.036871
    106 H47         0.9080    4.4110    3.9640 hc        1 MOL      0.036871
    107 H48        -0.4840    4.2290    5.0230 hc        1 MOL      0.036871
    108 H49         0.2850    2.8500    4.2380 hc        1 MOL      0.036871
    109 N10        -1.5530    2.5040   -0.1480 n         1 MOL      0.003039
    110 C35        -2.5660    2.2580   -1.1370 c3        1 MOL     -0.148403
    111 C36        -3.9310    2.0410   -0.4900 c         1 MOL      0.434991
    112 O17        -4.0290    1.5930    0.6300 o         1 MOL     -0.343262
    113 C37        -2.0670    0.9340   -1.7490 c3        1 MOL     -0.010458
    114 C38        -2.8900    0.5590   -2.9940 c         1 MOL      0.502269
    115 N11        -2.5800    1.2060   -4.1050 n         1 MOL     -0.646194
    116 O18        -3.7740   -0.3180   -2.9850 o         1 MOL     -0.448684
    117 H50        -1.0470    1.6900    0.1790 hn        1 MOL      0.058006
    118 H51        -2.6520    3.0780   -1.8450 h1        1 MOL      0.070425
    119 H52        -1.9750    0.1090   -1.0460 hc        1 MOL      0.054544
    120 H53        -1.0490    1.1450   -2.0610 hc        1 MOL      0.054544
    121 H54        -1.7760    1.8020   -4.0170 hn        1 MOL      0.322790
    122 H55        -3.2500    1.3090   -4.8560 hn        1 MOL      0.322790
    123 N12        -5.0410    2.2490   -1.2230 n         1 MOL     -0.421235
    124 C39        -6.3840    2.1010   -0.7700 c3        1 MOL      0.302690
    125 C40        -6.6010    0.6840   -0.1570 c         1 MOL      0.546129
    126 O19        -7.0420    0.6300    0.9880 o         1 MOL     -0.597002
    127 C41        -7.3200    2.4580   -1.9440 c3        1 MOL     -0.232744
    128 C42        -8.7450    2.2880   -1.5430 ca        1 MOL     -0.111175
    129 C43        -9.4100    3.2090   -0.7090 ca        1 MOL     -0.019383
    130 C44        -9.3680    1.0050   -1.6750 ca        1 MOL     -0.019383
    131 C45       -10.6930    2.9930   -0.1550 ca        1 MOL     -0.426907
    132 C46       -10.6010    0.6900   -1.0520 ca        1 MOL     -0.426907
    133 C47       -11.2240    1.6790   -0.2610 ca        1 MOL      0.519288
    134 O20       -12.3460    1.3760    0.4010 oh        1 MOL     -0.563634
    135 H56        -4.8760    2.7500   -2.0830 hn        1 MOL      0.215095
    136 H57        -6.5210    2.8760   -0.0170 h1        1 MOL     -0.003269
    137 H58        -7.2140    1.8040   -2.8060 hc        1 MOL      0.092100
    138 H59        -7.0990    3.5050   -2.1620 hc        1 MOL      0.092100
    139 H60        -8.9270    4.1700   -0.5770 ha        1 MOL      0.100952
    140 H61        -8.8790    0.2370   -2.2620 ha        1 MOL      0.100952
    141 H62       -11.1960    3.7360    0.4420 ha        1 MOL      0.181794
    142 H63       -11.0470   -0.2940   -1.0990 ha        1 MOL      0.181794
    143 H64       -12.7080    0.5210    0.1270 ho        1 MOL      0.391015
    144 N13        -6.1090   -0.3980   -0.8490 n         1 MOL     -0.030300
    145 C48        -6.2480   -1.7780   -0.4260 c3        1 MOL     -0.133781
    146 C49        -5.3920   -2.1400    0.8640 c         1 MOL      0.311719
    147 O21        -5.5890   -3.1380    1.4800 o         1 MOL     -0.505094
    148 C50        -6.0300   -2.7530   -1.6500 c3        1 MOL      0.094263
    149 C51        -6.9930   -2.5620   -2.7880 c3        1 MOL     -0.008714
    150 C52        -6.8390   -3.4730   -4.0060 c         1 MOL      0.602116
    151 O22        -5.7640   -3.4470   -4.5730 o         1 MOL     -0.712858
    152 O23        -7.7320   -4.3270   -4.1950 o         1 MOL     -0.712858
    153 H65        -5.6970   -0.2180   -1.7550 hn        1 MOL      0.049498
    154 H66        -7.2930   -1.7890   -0.1160 h1        1 MOL      0.076796
    155 H67        -6.1560   -3.7290   -1.1810 hc        1 MOL      0.021137
    156 H68        -5.0580   -2.5560   -2.0930 hc        1 MOL      0.021137
    157 H69        -6.9000   -1.5190   -3.1090 hc        1 MOL     -0.056544
    158 H70        -8.0210   -2.6750   -2.4610 hc        1 MOL     -0.056544
    159 N14        -4.5270   -1.2190    1.2110 n         1 MOL      0.004807
    160 C53        -3.7970   -1.2270    2.5550 c3        1 MOL     -0.013933
    161 C54        -4.4070   -0.3460    3.6770 c         1 MOL      0.395170
    162 O24        -4.4640   -0.7120    4.8470 o         1 MOL     -0.544692
    163 C55        -2.3420   -0.7850    2.1750 c3        1 MOL     -0.032046
    164 C56        -1.5950   -1.6810    1.1850 c3        1 MOL      0.031789
    165 C57        -0.2530   -1.0540    0.7040 c         1 MOL      0.961906
    166 O25         0.7610   -1.7590    0.4560 o         1 MOL     -0.858725
    167 O26        -0.1350    0.1910    0.6770 o         1 MOL     -0.858725
    168 H71        -4.2620   -0.4960    0.5580 hn        1 MOL     -0.024139
    169 H72        -3.7140   -2.2340    2.9790 h1        1 MOL      0.066205
    170 H73        -1.6730   -0.9310    3.0270 hc        1 MOL      0.023779
    171 H74        -2.3510    0.2790    1.9400 hc        1 MOL      0.023779
    172 H75        -2.1240   -1.8100    0.2490 hc        1 MOL     -0.025746
    173 H76        -1.4200   -2.6440    1.6670 hc        1 MOL     -0.025746
    174 N15        -4.9030    0.8740    3.3350 n         1 MOL     -0.037853
    175 C58        -5.4450    1.8750    4.3330 c3        1 MOL     -0.180339
    176 H77        -6.4730    1.6140    4.5880 h1        1 MOL      0.073747
    177 H78        -4.8330    1.8590    5.2350 h1        1 MOL      0.073747
    178 H79        -5.4230    2.8740    3.8960 h1        1 MOL      0.073747
    179 H80        -4.8830    1.1480    2.3680 hn        1 MOL      0.062376
    180 Ca1         2.4930    0.1070    0.1130 Ca        1 MOL      1.739836
    181 O27         2.1840    0.2510    2.7970 oh        1 MOL     -0.911352
    182 H81         2.5210    0.9870    3.3150 ho        1 MOL      0.432208
    183 H82         1.6040   -0.2130    3.3910 ho        1 MOL      0.432208
    184 O28         1.4110    0.5480   -2.3450 oh        1 MOL     -0.911352
    185 H83         1.7100   -0.2290   -2.8040 ho        1 MOL      0.432208
    186 H84         2.0150    1.2380   -2.6180 ho        1 MOL      0.432208
    187 O29         4.9670    0.0250    1.5260 oh        1 MOL     -0.911352
    188 H85         5.8040    0.1520    1.9640 ho        1 MOL      0.432208
    189 H86         4.5900   -0.7520    1.9440 ho        1 MOL      0.432208
@<TRIPOS>BOND
     1    1    2 1   
     2    1    4 1   
     3    1    5 1   
     4    1    6 1   
     5    2    3 2   
     6    2    7 1   
     7    7    8 1   
     8    7   15 1   
     9    8    9 1   
    10    8   11 1   
    11    8   16 1   
    12    9   10 2   
    13    9   19 1   
    14   11   12 1   
    15   11   17 1   
    16   11   18 1   
    17   12   13 1   
    18   12   14 1   
    19   19   20 1   
    20   19   27 1   
    21   20   21 1   
    22   20   23 1   
    23   20   28 1   
    24   21   22 2   
    25   21   38 1   
    26   23   24 1   
    27   23   25 1   
    28   23   29 1   
    29   24   26 1   
    30   24   30 1   
    31   24   31 1   
    32   25   32 1   
    33   25   33 1   
    34   25   34 1   
    35   26   35 1   
    36   26   36 1   
    37   26   37 1   
    38   38   39 1   
    39   38   46 1   
    40   39   40 1   
    41   39   42 1   
    42   39   47 1   
    43   40   41 2   
    44   40   50 1   
    45   42   43 1   
    46   42   48 1   
    47   42   49 1   
    48   43   44 1   
    49   43   45 1   
    50   50   51 1   
    51   50   54 1   
    52   51   52 1   
    53   51   55 1   
    54   51   56 1   
    55   52   53 2   
    56   52   57 1   
    57   57   58 1   
    58   57   65 1   
    59   58   59 1   
    60   58   61 1   
    61   58   66 1   
    62   59   60 2   
    63   59   69 1   
    64   61   62 1   
    65   61   67 1   
    66   61   68 1   
    67   62   63 1   
    68   62   64 1   
    69   69   70 1   
    70   69   73 1   
    71   70   71 1   
    72   70   74 1   
    73   70   75 1   
    74   71   72 2   
    75   71   76 1   
    76   76   77 1   
    77   76   85 1   
    78   77   78 1   
    79   77   80 1   
    80   77   86 1   
    81   78   79 2   
    82   78   93 1   
    83   80   81 1   
    84   80   87 1   
    85   80   88 1   
    86   81   82 1   
    87   81   89 1   
    88   81   90 1   
    89   82   83 1   
    90   82   84 2   
    91   83   91 1   
    92   83   92 1   
    93   93   94 1   
    94   93  100 1   
    95   94   95 1   
    96   94   97 1   
    97   94  101 1   
    98   95   96 2   
    99   95  109 1   
   100   97   98 1   
   101   97   99 1   
   102   97  102 1   
   103   98  103 1   
   104   98  104 1   
   105   98  105 1   
   106   99  106 1   
   107   99  107 1   
   108   99  108 1   
   109  109  110 1   
   110  109  117 1   
   111  110  111 1   
   112  110  113 1   
   113  110  118 1   
   114  111  112 2   
   115  111  123 1   
   116  113  114 1   
   117  113  119 1   
   118  113  120 1   
   119  114  115 1   
   120  114  116 2   
   121  115  121 1   
   122  115  122 1   
   123  123  124 1   
   124  123  135 1   
   125  124  125 1   
   126  124  127 1   
   127  124  136 1   
   128  125  126 2   
   129  125  144 1   
   130  127  128 1   
   131  127  137 1   
   132  127  138 1   
   133  128  129 ar  
   134  128  130 ar  
   135  129  131 ar  
   136  129  139 1   
   137  130  132 ar  
   138  130  140 1   
   139  131  133 ar  
   140  131  141 1   
   141  132  133 ar  
   142  132  142 1   
   143  133  134 1   
   144  134  143 1   
   145  144  145 1   
   146  144  153 1   
   147  145  146 1   
   148  145  148 1   
   149  145  154 1   
   150  146  147 2   
   151  146  159 1   
   152  148  149 1   
   153  148  155 1   
   154  148  156 1   
   155  149  150 1   
   156  149  157 1   
   157  149  158 1   
   158  150  151 1   
   159  150  152 1   
   160  159  160 1   
   161  159  168 1   
   162  160  161 1   
   163  160  163 1   
   164  160  169 1   
   165  161  162 2   
   166  161  174 1   
   167  163  164 1   
   168  163  170 1   
   169  163  171 1   
   170  164  165 1   
   171  164  172 1   
   172  164  173 1   
   173  165  166 1   
   174  165  167 1   
   175  174  175 1   
   176  174  179 1   
   177  175  176 1   
   178  175  177 1   
   179  175  178 1   
   180  181  182 1   
   181  181  183 1   
   182  184  185 1   
   183  184  186 1   
   184  187  188 1   
   185  187  189 1   
@<TRIPOS>SUBSTRUCTURE
     1 MOL         1 TEMP              0 ****  ****    0 ROOT
