@<TRIPOS>MOLECULE
MOL
  175   173     1     0     0
SMALL
resp


@<TRIPOS>ATOM
      1 C1         -1.5200    4.6840    5.4810 c3        1 MOL     -0.360548
      2 C2         -1.5890    3.8870    4.1480 c         1 MOL      0.785948
      3 O1         -0.6830    4.0390    3.3530 o         1 MOL     -0.594037
      4 H1         -1.0760    4.0580    6.2550 hc        1 MOL      0.080820
      5 H2         -0.9090    5.5760    5.3420 hc        1 MOL      0.080820
      6 H3         -2.5260    4.9760    5.7830 hc        1 MOL      0.080820
      7 N1         -2.6470    3.0820    3.9270 n         1 MOL     -0.729061
      8 C3         -3.0290    2.5620    2.6050 c3        1 MOL      0.291217
      9 C4         -3.4770    3.6090    1.5590 c         1 MOL      0.507654
     10 O2         -4.5450    4.2260    1.6420 o         1 MOL     -0.561751
     11 C5         -4.0860    1.4060    2.6780 c3        1 MOL     -0.220851
     12 C6         -4.3890    0.7180    1.2950 c         1 MOL      0.816288
     13 O3         -5.3780   -0.0780    1.2700 o         1 MOL     -0.746316
     14 O4         -3.6880    0.9630    0.2860 o         1 MOL     -0.746316
     15 H4         -3.3970    3.1190    4.6070 hn        1 MOL      0.339943
     16 H5         -2.1330    2.0850    2.1980 h1        1 MOL     -0.059339
     17 H6         -5.0100    1.8880    3.0090 hc        1 MOL      0.030450
     18 H7         -3.7420    0.6660    3.3960 hc        1 MOL      0.030450
     19 N2         -2.6450    3.8080    0.5180 n         1 MOL     -0.415500
     20 C7         -2.7280    4.9410   -0.3900 c3        1 MOL      0.316867
     21 C8         -3.8760    4.6870   -1.3540 c         1 MOL      0.289236
     22 O5         -4.8170    5.5150   -1.5430 o         1 MOL     -0.574441
     23 C9         -1.4050    5.1880   -1.1870 c3        1 MOL     -0.364086
     24 H8         -1.9470    3.1180    0.3020 hn        1 MOL      0.257783
     25 H9         -3.0490    5.8550    0.1120 h1        1 MOL      0.011784
     26 H10        -1.6090    5.2480   -2.2580 hc        1 MOL      0.095608
     27 H11        -0.8970    6.0840   -0.8390 hc        1 MOL      0.095608
     28 H12        -0.7560    4.3420   -0.9550 hc        1 MOL      0.095608
     29 N3         -3.9210    3.5330   -2.0270 n         1 MOL     -0.034782
     30 C10        -4.8940    3.2050   -3.0580 c3        1 MOL      0.000453
     31 C11        -6.1300    2.5760   -2.5090 c         1 MOL      0.454275
     32 O6         -7.0900    2.3560   -3.2280 o         1 MOL     -0.559921
     33 C12        -4.1510    2.3240   -4.1650 c3        1 MOL     -0.323925
     34 C13        -3.3600    1.2590   -3.4700 c         1 MOL      0.782704
     35 O7         -3.8380    0.1450   -3.0760 o         1 MOL     -0.737225
     36 O8         -2.2050    1.5590   -3.0660 o         1 MOL     -0.737225
     37 H13        -3.0850    2.9760   -1.9150 hn        1 MOL      0.116582
     38 H14        -5.2860    4.1250   -3.4960 h1        1 MOL      0.088357
     39 H15        -3.4630    2.9910   -4.6920 hc        1 MOL      0.084296
     40 H16        -4.9470    1.9340   -4.8000 hc        1 MOL      0.084296
     41 N4         -6.1570    2.1580   -1.2530 n         1 MOL     -0.214384
     42 C14        -7.3470    1.5790   -0.6330 c3        1 MOL     -0.149087
     43 C15        -7.5610    0.0720   -0.9830 c         1 MOL      0.546147
     44 O9         -8.7430   -0.3160   -0.9500 o         1 MOL     -0.607171
     45 H17        -5.3430    2.3570   -0.6810 hn        1 MOL      0.221141
     46 H18        -8.2690    2.0910   -0.9260 h1        1 MOL      0.093183
     47 H19        -7.3410    1.6630    0.4520 h1        1 MOL      0.093183
     48 N5         -6.5060   -0.6640   -1.3060 n         1 MOL     -0.160723
     49 C16        -6.6260   -2.1400   -1.4600 c3        1 MOL     -0.170886
     50 C17        -6.6640   -3.0560   -0.2200 c         1 MOL      0.479553
     51 O10        -6.5560   -4.2950   -0.3180 o         1 MOL     -0.523240
     52 C18        -5.6700   -2.7380   -2.5320 c3        1 MOL      0.053404
     53 C19        -4.2660   -2.8500   -2.0980 c         1 MOL      0.394447
     54 N6         -3.4020   -3.4330   -2.9730 n         1 MOL     -0.554389
     55 O11        -3.8360   -2.4300   -1.0050 o         1 MOL     -0.493540
     56 H20        -5.5710   -0.3090   -1.4040 hn        1 MOL      0.129168
     57 H21        -7.6180   -2.2550   -1.9020 h1        1 MOL      0.122356
     58 H22        -5.7640   -2.1690   -3.4560 hc        1 MOL      0.040325
     59 H23        -6.1000   -3.7010   -2.8010 hc        1 MOL      0.040325
     60 H24        -3.7780   -3.8320   -3.8200 hn        1 MOL      0.292506
     61 H25        -2.4040   -3.5260   -2.8260 hn        1 MOL      0.292506
     62 N7         -6.8150   -2.5390    1.0030 n         1 MOL     -0.356405
     63 C20        -6.6520   -3.3090    2.2520 c3        1 MOL     -0.107637
     64 C21        -5.2060   -3.6200    2.7320 c         1 MOL      0.482462
     65 O12        -5.0300   -4.3790    3.7410 o         1 MOL     -0.576020
     66 H26        -6.9390   -1.5440    1.1110 hn        1 MOL      0.333049
     67 H27        -7.1150   -4.2860    2.1550 h1        1 MOL      0.101834
     68 H28        -7.1800   -2.7550    3.0400 h1        1 MOL      0.101834
     69 N8         -4.0810   -3.2080    2.0380 n         1 MOL     -0.128946
     70 C22        -2.6790   -3.4920    2.2960 c3        1 MOL     -0.269283
     71 C23        -1.7500   -2.3410    2.0180 c         1 MOL      0.689091
     72 O13        -2.1240   -1.4690    1.2650 o         1 MOL     -0.589324
     73 C24        -2.1780   -4.7430    1.5370 c3        1 MOL      0.575256
     74 C25        -2.6160   -6.0520    2.1800 c3        1 MOL     -0.434744
     75 O14        -2.6020   -4.8030    0.2000 oh        1 MOL     -0.661932
     76 H29        -4.3720   -2.7530    1.1880 hn        1 MOL      0.107011
     77 H30        -2.5750   -3.7270    3.3550 h1        1 MOL      0.115513
     78 H31        -1.1000   -4.6880    1.5470 h1        1 MOL     -0.039340
     79 H32        -3.0700   -3.9780    0.0730 ho        1 MOL      0.441135
     80 H33        -2.2280   -6.1580    3.1970 hc        1 MOL      0.100087
     81 H34        -3.7100   -6.1040    2.2380 hc        1 MOL      0.100087
     82 H35        -2.2360   -6.8860    1.5960 hc        1 MOL      0.100087
     83 N9         -0.4480   -2.4380    2.4810 n         1 MOL     -0.535213
     84 C26         0.5910   -1.5540    1.9340 c3        1 MOL     -0.063658
     85 C27         1.7030   -2.4150    1.2910 c         1 MOL      0.589913
     86 O15         2.0030   -3.5240    1.7320 o         1 MOL     -0.577982
     87 C28         1.1040   -0.4650    2.8730 c3        1 MOL      0.144556
     88 C29         1.8140   -1.0110    4.2100 c3        1 MOL     -0.274386
     89 C30        -0.0480    0.5150    3.1610 c3        1 MOL     -0.524475
     90 C31         2.5030   -0.0270    5.1430 c3        1 MOL      0.028430
     91 H36        -0.1600   -3.1340    3.1640 hn        1 MOL      0.289120
     92 H37         0.2210   -0.9700    1.0920 h1        1 MOL      0.015142
     93 H38         1.8970    0.1360    2.4370 hc        1 MOL     -0.051294
     94 H39         2.6060   -1.7160    3.9770 hc        1 MOL      0.084418
     95 H40         1.0750   -1.5180    4.8280 hc        1 MOL      0.084418
     96 H41        -0.9750    0.0630    3.4900 hc        1 MOL      0.181997
     97 H42         0.2360    1.3030    3.8660 hc        1 MOL      0.181997
     98 H43        -0.3480    1.0430    2.2580 hc        1 MOL      0.181997
     99 H44         1.8280    0.7130    5.5630 hc        1 MOL     -0.000405
    100 H45         2.9010   -0.5010    6.0410 hc        1 MOL     -0.000405
    101 H46         3.3080    0.5610    4.6900 hc        1 MOL     -0.000405
    102 N10         2.2150   -1.9870    0.1590 n         1 MOL     -0.378896
    103 C32         3.3820   -2.5030   -0.5110 c3        1 MOL     -0.090379
    104 C33         4.7340   -1.8100   -0.1850 c         1 MOL      0.633507
    105 O16         4.7450   -0.8350    0.5990 o         1 MOL     -0.483134
    106 C34         3.2420   -2.2670   -2.0630 c3        1 MOL     -0.332377
    107 C35         1.9320   -2.6580   -2.7730 c         1 MOL      0.839399
    108 O17         1.4900   -1.8620   -3.6210 o         1 MOL     -0.715060
    109 O18         1.4740   -3.8290   -2.7550 o         1 MOL     -0.715060
    110 H47         1.8710   -1.0790   -0.1160 hn        1 MOL      0.360576
    111 H48         3.5680   -3.5590   -0.3020 h1        1 MOL      0.120037
    112 H49         4.0240   -2.8440   -2.5560 hc        1 MOL      0.072459
    113 H50         3.5550   -1.2730   -2.3850 hc        1 MOL      0.072459
    114 N11         5.9000   -2.1990   -0.6890 n         1 MOL     -0.698175
    115 C36         7.1750   -1.4840   -0.4330 c3        1 MOL      0.533454
    116 C37         7.2800    0.0310   -0.6410 c         1 MOL      0.267551
    117 O19         7.7350    0.6890    0.3150 o         1 MOL     -0.503741
    118 C38         8.3040   -2.2220   -1.1820 c3        1 MOL     -0.267017
    119 C39         9.7200   -1.8770   -0.7290 ca        1 MOL      0.066546
    120 C40        10.0330   -1.8710    0.6570 ca        1 MOL     -0.120739
    121 C41        10.6900   -1.5500   -1.6920 ca        1 MOL     -0.120739
    122 C42        11.3080   -1.4690    1.0360 ca        1 MOL     -0.178213
    123 C43        11.9560   -1.1190   -1.2310 ca        1 MOL     -0.178213
    124 C44        12.2300   -0.9260    0.1030 ca        1 MOL     -0.018464
    125 H51         5.9850   -2.7660   -1.5240 hn        1 MOL      0.296712
    126 H52         7.3800   -1.7390    0.6070 h1        1 MOL      0.035143
    127 H53         8.2980   -1.9430   -2.2280 hc        1 MOL      0.067747
    128 H54         8.2070   -3.3030   -1.0570 hc        1 MOL      0.067747
    129 H55         9.3010   -2.2180    1.3670 ha        1 MOL      0.114525
    130 H56        10.5050   -1.6330   -2.7450 ha        1 MOL      0.114525
    131 H57        11.4370   -1.4120    2.1090 ha        1 MOL      0.116644
    132 H58        12.7270   -0.9370   -1.9800 ha        1 MOL      0.116644
    133 H59        13.2270   -0.6580    0.4210 ha        1 MOL      0.078881
    134 N12         6.6450    0.7050   -1.6090 n         1 MOL     -0.051296
    135 C45         6.7110    2.2010   -1.7040 c3        1 MOL      0.118272
    136 C46         5.8100    3.0310   -0.7710 c         1 MOL      0.229646
    137 O20         6.2720    3.9560   -0.0840 o         1 MOL     -0.464299
    138 C47         6.3620    2.5030   -3.2040 c3        1 MOL     -0.076634
    139 C48         6.6250    1.1940   -3.9400 c3        1 MOL     -0.091775
    140 C49         6.1770    0.1070   -2.8700 c3        1 MOL     -0.178128
    141 H60         7.7080    2.5470   -1.4580 h1        1 MOL      0.053173
    142 H61         5.2840    2.6500   -3.3240 hc        1 MOL      0.047707
    143 H62         6.9660    3.3080   -3.6280 hc        1 MOL      0.047707
    144 H63         5.9700    1.0650   -4.8100 hc        1 MOL      0.047471
    145 H64         7.6860    1.1260   -4.1820 hc        1 MOL      0.047471
    146 H65         5.0910    0.0280   -2.9490 h1        1 MOL      0.094799
    147 H66         6.7030   -0.8030   -3.1430 h1        1 MOL      0.094799
    148 N13         4.6400    2.4910   -0.5120 n         1 MOL     -0.174549
    149 C50         3.8770    2.8950    0.6780 c3        1 MOL     -0.134519
    150 C51         4.5790    2.6050    2.0660 c         1 MOL      0.414697
    151 O21         4.4840    3.4700    2.9500 o         1 MOL     -0.561863
    152 C52         2.5370    2.1830    0.6570 c3        1 MOL      0.046679
    153 C53         1.7710    2.4290   -0.6630 c3        1 MOL     -0.117421
    154 C54         0.5470    1.5500   -0.8230 c         1 MOL      0.724015
    155 O22         0.6440    0.2860   -0.9120 o         1 MOL     -0.752786
    156 O23        -0.5880    2.0380   -0.5040 o         1 MOL     -0.752786
    157 H67         4.3380    1.7020   -1.0600 hn        1 MOL      0.258026
    158 H68         3.6420    3.9530    0.7620 h1        1 MOL      0.121715
    159 H69         1.9230    2.4410    1.5190 hc        1 MOL      0.091398
    160 H70         2.7650    1.1170    0.6490 hc        1 MOL      0.091398
    161 H71         2.4470    2.3170   -1.5060 hc        1 MOL      0.010128
    162 H72         1.4590    3.4760   -0.7110 hc        1 MOL      0.010128
    163 N14         5.3460    1.5340    2.2420 n         1 MOL      0.135359
    164 C55         6.1010    1.2930    3.4650 c3        1 MOL     -0.269027
    165 H73         5.8630    0.3010    3.8480 h1        1 MOL      0.090561
    166 H74         7.1680    1.3540    3.2510 h1        1 MOL      0.090561
    167 H75         5.8360    2.0420    4.2100 h1        1 MOL      0.090561
    168 H76         5.3160    0.8330    1.5170 hn        1 MOL     -0.016693
    169 Ca1        -2.0170   -0.2190   -1.2080 Ca        1 MOL      1.786372
    170 O24        -1.1020   -1.1260   -3.4680 oh        1 MOL     -0.811578
    171 H77        -1.3780   -1.5870   -4.2540 ho        1 MOL      0.383248
    172 H78        -0.1690   -1.3250   -3.3870 ho        1 MOL      0.383248
    173 O25        -0.7440   -2.8550   -1.0310 oh        1 MOL     -0.811578
    174 H79        -0.9520   -3.6970   -0.6300 ho        1 MOL      0.383248
    175 H80         0.0200   -3.0340   -1.5810 ho        1 MOL      0.383248
@<TRIPOS>BOND
     1    1    2 1   
     2    1    4 1   
     3    1    5 1   
     4    1    6 1   
     5    2    3 2   
     6    2    7 1   
     7    7    8 1   
     8    7   15 1   
     9    8    9 1   
    10    8   11 1   
    11    8   16 1   
    12    9   10 2   
    13    9   19 1   
    14   11   12 1   
    15   11   17 1   
    16   11   18 1   
    17   12   13 1   
    18   12   14 1   
    19   19   20 1   
    20   19   24 1   
    21   20   21 1   
    22   20   23 1   
    23   20   25 1   
    24   21   22 2   
    25   21   29 1   
    26   23   26 1   
    27   23   27 1   
    28   23   28 1   
    29   29   30 1   
    30   29   37 1   
    31   30   31 1   
    32   30   33 1   
    33   30   38 1   
    34   31   32 2   
    35   31   41 1   
    36   33   34 1   
    37   33   39 1   
    38   33   40 1   
    39   34   35 1   
    40   34   36 1   
    41   41   42 1   
    42   41   45 1   
    43   42   43 1   
    44   42   46 1   
    45   42   47 1   
    46   43   44 2   
    47   43   48 1   
    48   48   49 1   
    49   48   56 1   
    50   49   50 1   
    51   49   52 1   
    52   49   57 1   
    53   50   51 2   
    54   50   62 1   
    55   52   53 1   
    56   52   58 1   
    57   52   59 1   
    58   53   54 1   
    59   53   55 2   
    60   54   60 1   
    61   54   61 1   
    62   62   63 1   
    63   62   66 1   
    64   63   64 1   
    65   63   67 1   
    66   63   68 1   
    67   64   65 2   
    68   64   69 1   
    69   69   70 1   
    70   69   76 1   
    71   70   71 1   
    72   70   73 1   
    73   70   77 1   
    74   71   72 2   
    75   71   83 1   
    76   73   74 1   
    77   73   75 1   
    78   73   78 1   
    79   74   80 1   
    80   74   81 1   
    81   74   82 1   
    82   75   79 1   
    83   83   84 1   
    84   83   91 1   
    85   84   85 1   
    86   84   87 1   
    87   84   92 1   
    88   85   86 2   
    89   85  102 1   
    90   87   88 1   
    91   87   89 1   
    92   87   93 1   
    93   88   90 1   
    94   88   94 1   
    95   88   95 1   
    96   89   96 1   
    97   89   97 1   
    98   89   98 1   
    99   90   99 1   
   100   90  100 1   
   101   90  101 1   
   102  102  103 1   
   103  102  110 1   
   104  103  104 1   
   105  103  106 1   
   106  103  111 1   
   107  104  105 2   
   108  104  114 1   
   109  106  107 1   
   110  106  112 1   
   111  106  113 1   
   112  107  108 1   
   113  107  109 1   
   114  114  115 1   
   115  114  125 1   
   116  115  116 1   
   117  115  118 1   
   118  115  126 1   
   119  116  117 2   
   120  116  134 1   
   121  118  119 1   
   122  118  127 1   
   123  118  128 1   
   124  119  120 ar  
   125  119  121 ar  
   126  120  122 ar  
   127  120  129 1   
   128  121  123 ar  
   129  121  130 1   
   130  122  124 ar  
   131  122  131 1   
   132  123  124 ar  
   133  123  132 1   
   134  124  133 1   
   135  134  135 1   
   136  134  140 1   
   137  135  136 1   
   138  135  138 1   
   139  135  141 1   
   140  136  137 2   
   141  136  148 1   
   142  138  139 1   
   143  138  142 1   
   144  138  143 1   
   145  139  140 1   
   146  139  144 1   
   147  139  145 1   
   148  140  146 1   
   149  140  147 1   
   150  148  149 1   
   151  148  157 1   
   152  149  150 1   
   153  149  152 1   
   154  149  158 1   
   155  150  151 2   
   156  150  163 1   
   157  152  153 1   
   158  152  159 1   
   159  152  160 1   
   160  153  154 1   
   161  153  161 1   
   162  153  162 1   
   163  154  155 1   
   164  154  156 1   
   165  163  164 1   
   166  163  168 1   
   167  164  165 1   
   168  164  166 1   
   169  164  167 1   
   170  170  171 1   
   171  170  172 1   
   172  173  174 1   
   173  173  175 1   
@<TRIPOS>SUBSTRUCTURE
     1 MOL         1 TEMP              0 ****  ****    0 ROOT
