@<TRIPOS>MOLECULE
MOL
  179   176     1     0     0
SMALL
resp


@<TRIPOS>ATOM
      1 C1          1.9690    2.6600    6.3410 c3        1 MOL     -0.278620
      2 C2          1.4280    2.3150    4.9040 c         1 MOL      0.736125
      3 O1          2.3250    2.0270    4.1050 o         1 MOL     -0.586008
      4 H1          2.1010    1.7390    6.9090 hc        1 MOL      0.070420
      5 H2          2.9260    3.1750    6.2570 hc        1 MOL      0.070420
      6 H3          1.2530    3.3030    6.8550 hc        1 MOL      0.070420
      7 N1          0.1830    2.4960    4.5030 n         1 MOL     -0.613675
      8 C3         -0.3510    2.3690    3.1550 c3        1 MOL     -0.019726
      9 C4         -0.1680    3.7660    2.4560 c         1 MOL      0.758478
     10 O2         -0.6400    4.7970    2.9160 o         1 MOL     -0.594811
     11 C5         -1.7880    1.7720    3.0600 c3        1 MOL     -0.122174
     12 C6         -2.4130    1.6450    1.6160 c         1 MOL      0.608309
     13 O3         -1.7550    2.1320    0.6810 o         1 MOL     -0.700100
     14 O4         -3.4820    1.0330    1.3950 o         1 MOL     -0.700100
     15 H4         -0.4730    2.7470    5.2250 hn        1 MOL      0.327728
     16 H5          0.2660    1.7030    2.5500 h1        1 MOL      0.027653
     17 H6         -2.5050    2.3280    3.6660 hc        1 MOL      0.056952
     18 H7         -1.7620    0.7590    3.4600 hc        1 MOL      0.056952
     19 N2          0.5250    3.7310    1.3090 n         1 MOL     -0.499230
     20 C7          0.8410    4.8790    0.4550 c3        1 MOL     -0.102198
     21 C8         -0.3440    5.4720   -0.3170 c         1 MOL      0.530293
     22 O5         -0.2480    6.5730   -0.8060 o         1 MOL     -0.598962
     23 C9          1.9780    4.5210   -0.4800 c3        1 MOL      0.145394
     24 C10         2.9430    5.6860   -0.7580 c3        1 MOL      0.004701
     25 C11         4.2180    5.1630   -1.5410 c3        1 MOL     -0.100583
     26 C12         5.1750    6.2430   -1.9310 c3        1 MOL     -0.090353
     27 N3          4.8470    6.9310   -3.1460 n4        1 MOL     -0.417226
     28 H8          0.6470    2.8210    0.8850 hn        1 MOL      0.274115
     29 H9          1.1260    5.6950    1.1180 h1        1 MOL      0.104128
     30 H10         1.5660    4.0880   -1.3890 hc        1 MOL      0.010716
     31 H11         2.5460    3.6970   -0.0330 hc        1 MOL      0.010716
     32 H12         3.2740    6.1260    0.1780 hc        1 MOL      0.005486
     33 H13         2.4850    6.4310   -1.4120 hc        1 MOL      0.005486
     34 H14         3.7800    4.6620   -2.3970 hc        1 MOL      0.075557
     35 H15         4.7420    4.5190   -0.8310 hc        1 MOL      0.075557
     36 H16         6.1860    5.8560   -1.9920 hx        1 MOL      0.140082
     37 H17         5.2160    6.9500   -1.0900 hx        1 MOL      0.140082
     38 H18         4.9980    6.3140   -3.9300 hn        1 MOL      0.347302
     39 H19         3.8720    7.2090   -3.1220 hn        1 MOL      0.347302
     40 H20         5.3920    7.7580   -3.3490 hn        1 MOL      0.347302
     41 N4         -1.4440    4.7660   -0.4240 n         1 MOL     -0.163276
     42 C13        -2.6350    5.1930   -1.1650 c3        1 MOL     -0.244063
     43 C14        -4.0090    4.8320   -0.5080 c         1 MOL      0.499885
     44 O6         -5.0840    5.0300   -1.0570 o         1 MOL     -0.510049
     45 C15        -2.5330    4.7000   -2.6510 c3        1 MOL      0.063163
     46 C16        -2.8910    3.2310   -3.0040 c         1 MOL      0.643917
     47 O7         -3.0050    2.8660   -4.2320 o         1 MOL     -0.701185
     48 O8         -2.9740    2.4140   -2.0640 o         1 MOL     -0.701185
     49 H21        -1.4720    3.8400   -0.0310 hn        1 MOL      0.113789
     50 H22        -2.6450    6.2770   -1.1760 h1        1 MOL      0.155573
     51 H23        -1.5110    4.8460   -3.0210 hc        1 MOL     -0.008433
     52 H24        -3.1120    5.3080   -3.3360 hc        1 MOL     -0.008433
     53 N5         -4.0190    4.1790    0.6700 n         1 MOL     -0.231895
     54 C17        -5.2510    3.7820    1.3160 c3        1 MOL     -0.289292
     55 C18        -6.0820    2.7420    0.5390 c         1 MOL      0.527633
     56 O9         -7.2610    2.6310    0.8300 o         1 MOL     -0.578806
     57 H25        -3.2100    4.0020    1.2440 hn        1 MOL      0.225595
     58 H26        -5.7560    4.7380    1.4040 h1        1 MOL      0.137047
     59 H27        -4.9740    3.3200    2.2640 h1        1 MOL      0.137047
     60 N6         -5.5400    1.9640   -0.4170 n         1 MOL     -0.039985
     61 C19        -6.3880    1.0590   -1.1260 c3        1 MOL     -0.172907
     62 C20        -6.7570   -0.1980   -0.2890 c         1 MOL      0.362093
     63 O10        -7.4320   -1.1020   -0.7680 o         1 MOL     -0.455216
     64 C21        -5.6450    0.7640   -2.3850 c3        1 MOL     -0.075817
     65 C22        -4.7090   -0.4120   -2.3280 c         1 MOL      0.458107
     66 N7         -4.8080   -1.3530   -3.1620 n         1 MOL     -0.724481
     67 O11        -3.8640   -0.5230   -1.5090 o         1 MOL     -0.540300
     68 H28        -4.5580    2.0850   -0.6510 hn        1 MOL      0.147656
     69 H29        -7.2930    1.5900   -1.3950 h1        1 MOL      0.142121
     70 H30        -5.0040    1.5510   -2.7860 hc        1 MOL      0.075598
     71 H31        -6.4150    0.5200   -3.1260 hc        1 MOL      0.075598
     72 H32        -5.5530   -1.3850   -3.8420 hn        1 MOL      0.369955
     73 H33        -4.2120   -2.1500   -2.9550 hn        1 MOL      0.369955
     74 N8         -6.2240   -0.3240    0.9730 n         1 MOL     -0.124018
     75 C23        -6.4520   -1.5270    1.8160 c3        1 MOL     -0.422071
     76 C24        -5.3700   -2.6320    1.6600 c         1 MOL      0.639212
     77 O12        -5.6290   -3.7080    2.2130 o         1 MOL     -0.530182
     78 H34        -5.5460    0.3910    1.2050 hn        1 MOL      0.232716
     79 H35        -7.3930   -2.0310    1.5860 h1        1 MOL      0.171132
     80 H36        -6.4590   -1.1730    2.8410 h1        1 MOL      0.171132
     81 N9         -4.2050   -2.3260    0.9770 n         1 MOL     -0.363641
     82 C25        -3.0790   -3.2280    0.7600 c3        1 MOL     -0.005014
     83 C26        -1.7480   -2.5220    0.8410 c         1 MOL      0.617346
     84 O13        -1.5920   -1.4020    0.3920 o         1 MOL     -0.637643
     85 C27        -3.2980   -3.9880   -0.5570 c3        1 MOL      0.470407
     86 C28        -4.4930   -4.9320   -0.6550 ca        1 MOL     -0.047128
     87 C29        -5.6860   -4.4610   -1.2320 ca        1 MOL     -0.237501
     88 C30        -4.3620   -6.2470   -0.1860 ca        1 MOL     -0.237501
     89 C31        -6.7910   -5.2580   -1.1720 ca        1 MOL     -0.153185
     90 C32        -5.4440   -7.1250   -0.3670 ca        1 MOL     -0.153185
     91 C33        -6.6830   -6.6050   -0.8070 ca        1 MOL      0.263987
     92 O14        -7.8070   -7.3370   -0.7520 oh        1 MOL     -0.442581
     93 H37        -4.0550   -1.3470    0.7790 hn        1 MOL      0.249591
     94 H38        -3.1190   -3.9550    1.5740 h1        1 MOL     -0.006325
     95 H39        -2.4530   -4.6270   -0.7740 hc        1 MOL     -0.145491
     96 H40        -3.3510   -3.2980   -1.3960 hc        1 MOL     -0.145491
     97 H41        -5.8190   -3.4220   -1.5130 ha        1 MOL      0.151461
     98 H42        -3.5150   -6.5510    0.4070 ha        1 MOL      0.151461
     99 H43        -7.7650   -4.8900   -1.4420 ha        1 MOL      0.117640
    100 H44        -5.3770   -8.1680   -0.0830 ha        1 MOL      0.117640
    101 H45        -7.6250   -8.2440   -0.4780 ho        1 MOL      0.339929
    102 N10        -0.7320   -3.2640    1.2360 n         1 MOL     -0.510656
    103 C34         0.6410   -2.7300    1.4070 c3        1 MOL      0.080265
    104 C35         1.6450   -3.7580    0.8360 c         1 MOL      0.427629
    105 O15         1.7130   -4.8890    1.3060 o         1 MOL     -0.506839
    106 C36         0.9840   -2.5000    2.8460 c3        1 MOL      0.029759
    107 C37         0.2750   -1.1640    3.3580 c3        1 MOL      0.193295
    108 C38         2.4890   -2.5130    3.2360 c3        1 MOL     -0.138736
    109 C39         0.2680   -0.9840    4.8420 c3        1 MOL     -0.220651
    110 H46        -0.8730   -4.1620    1.6860 hn        1 MOL      0.303019
    111 H47         0.7490   -1.7840    0.8640 h1        1 MOL      0.056510
    112 H48         0.4740   -3.3010    3.3970 hc        1 MOL      0.015252
    113 H49        -0.7820   -1.2600    3.0880 hc        1 MOL     -0.006270
    114 H50         0.6700   -0.2720    2.8860 hc        1 MOL     -0.006270
    115 H51         2.9850   -1.7110    2.6900 hc        1 MOL      0.034076
    116 H52         2.6260   -2.3170    4.2920 hc        1 MOL      0.034076
    117 H53         2.9060   -3.4860    3.0000 hc        1 MOL      0.034076
    118 H54        -0.0340   -1.9050    5.3300 hc        1 MOL      0.038702
    119 H55         1.2520   -0.5920    5.0980 hc        1 MOL      0.038702
    120 H56        -0.4230   -0.1980    5.1420 hc        1 MOL      0.038702
    121 N11         2.4860   -3.2320   -0.1260 n         1 MOL     -0.161539
    122 C40         3.4250   -4.0840   -0.8540 c3        1 MOL     -0.094664
    123 C41         4.8260   -3.8850   -0.2290 c         1 MOL      0.543356
    124 O16         5.0900   -2.9020    0.4340 o         1 MOL     -0.415982
    125 C42         3.4640   -3.8110   -2.3740 c3        1 MOL      0.066224
    126 O17         3.9440   -2.4620   -2.5670 oh        1 MOL     -0.472633
    127 H57         2.2930   -2.3120   -0.4840 hn        1 MOL      0.188523
    128 H58         3.0800   -5.1090   -0.6660 h1        1 MOL      0.083893
    129 H59         2.5360   -3.9760   -2.9120 h1        1 MOL      0.050985
    130 H60         4.0820   -4.5240   -2.9170 h1        1 MOL      0.050985
    131 H61         4.1260   -2.4550   -3.5110 ho        1 MOL      0.378174
    132 N12         5.8130   -4.7460   -0.5650 n         1 MOL     -0.531972
    133 C43         7.2260   -4.4060   -0.1500 c3        1 MOL      0.165000
    134 C44         7.7540   -3.1260   -0.8310 c         1 MOL      0.437749
    135 O18         8.7230   -2.4790   -0.4000 o         1 MOL     -0.522675
    136 C45         8.1010   -5.5080   -0.5670 c3        1 MOL     -0.418787
    137 H62         5.5970   -5.4170   -1.2870 hn        1 MOL      0.306883
    138 H63         7.2530   -4.2930    0.9370 h1        1 MOL      0.121842
    139 H64         8.1020   -5.6910   -1.6400 hc        1 MOL      0.124720
    140 H65         9.0730   -5.1340   -0.2510 hc        1 MOL      0.124720
    141 H66         7.7920   -6.4240   -0.0560 hc        1 MOL      0.124720
    142 N13         7.2130   -2.6590   -1.9240 n         1 MOL     -0.331319
    143 C46         7.5150   -1.3010   -2.4540 c3        1 MOL      0.200648
    144 C47         7.0780   -0.1960   -1.5040 c         1 MOL      0.377289
    145 O19         7.7230    0.7920   -1.3610 o         1 MOL     -0.521034
    146 C48         6.7860   -1.1700   -3.8100 c3        1 MOL     -0.395490
    147 H67         6.5650   -3.2210   -2.4490 hn        1 MOL      0.226502
    148 H68         8.5830   -1.2550   -2.6520 h1        1 MOL      0.067141
    149 H69         7.0690   -0.2300   -4.2730 hc        1 MOL      0.107086
    150 H70         6.8780   -2.0700   -4.4180 hc        1 MOL      0.107086
    151 H71         5.7340   -1.0230   -3.5760 hc        1 MOL      0.107086
    152 N14         5.9250   -0.3460   -0.8300 n         1 MOL      0.116633
    153 C49         5.4210    0.6440    0.0660 c3        1 MOL     -0.097656
    154 C50         6.1460    0.5800    1.3910 c         1 MOL      0.495037
    155 O20         6.2970    1.6540    2.0240 o         1 MOL     -0.556869
    156 C51         3.8790    0.5000    0.2630 c3        1 MOL      0.173724
    157 C52         3.1450    0.7800   -1.0630 c3        1 MOL      0.241895
    158 C53         1.6350    0.6170   -0.8090 c         1 MOL      0.609293
    159 O21         0.8820    1.5130   -0.4320 o         1 MOL     -0.686322
    160 O22         1.1190   -0.4230   -1.2450 o         1 MOL     -0.686322
    161 H72         5.3350   -1.1550   -0.9690 hn        1 MOL     -0.202545
    162 H73         5.6050    1.6470   -0.3080 h1        1 MOL      0.029926
    163 H74         3.5170    1.1760    1.0470 hc        1 MOL     -0.011438
    164 H75         3.6320   -0.5210    0.5670 hc        1 MOL     -0.011438
    165 H76         3.4820    0.0040   -1.7340 hc        1 MOL     -0.140401
    166 H77         3.2990    1.7880   -1.4600 hc        1 MOL     -0.140401
    167 N15         6.5050   -0.6110    1.8770 n         1 MOL     -0.181545
    168 C54         7.3810   -0.7890    3.0400 c3        1 MOL     -0.288656
    169 H78         6.7870   -0.7500    3.9520 h1        1 MOL      0.119964
    170 H79         7.8810   -1.7550    2.9740 h1        1 MOL      0.119964
    171 H80         8.1270    0.0050    3.0590 h1        1 MOL      0.119964
    172 H81         6.2080   -1.4120    1.3340 hn        1 MOL      0.162183
    173 Ca1        -1.4330    0.4890   -1.3810 Ca        1 MOL      1.784247
    174 O23        -0.0060    1.4270   -3.5830 oh        1 MOL     -0.841069
    175 H82         0.3880    1.0130   -4.3470 ho        1 MOL      0.414432
    176 H83         0.0950    2.3590   -3.7350 ho        1 MOL      0.414432
    177 O24        -1.4780   -1.9140   -2.5640 oh        1 MOL     -0.841069
    178 H84        -2.0230   -1.9220   -3.3490 ho        1 MOL      0.414432
    179 H85        -1.1460   -2.8120   -2.4940 ho        1 MOL      0.414432
@<TRIPOS>BOND
     1    1    2 1   
     2    1    4 1   
     3    1    5 1   
     4    1    6 1   
     5    2    3 2   
     6    2    7 1   
     7    7    8 1   
     8    7   15 1   
     9    8    9 1   
    10    8   11 1   
    11    8   16 1   
    12    9   10 2   
    13    9   19 1   
    14   11   12 1   
    15   11   17 1   
    16   11   18 1   
    17   12   13 1   
    18   12   14 1   
    19   19   20 1   
    20   19   28 1   
    21   20   21 1   
    22   20   23 1   
    23   20   29 1   
    24   21   22 2   
    25   21   41 1   
    26   23   24 1   
    27   23   30 1   
    28   23   31 1   
    29   24   25 1   
    30   24   32 1   
    31   24   33 1   
    32   25   26 1   
    33   25   34 1   
    34   25   35 1   
    35   26   27 1   
    36   26   36 1   
    37   26   37 1   
    38   27   38 1   
    39   27   39 1   
    40   27   40 1   
    41   41   42 1   
    42   41   49 1   
    43   42   43 1   
    44   42   45 1   
    45   42   50 1   
    46   43   44 2   
    47   43   53 1   
    48   45   46 1   
    49   45   51 1   
    50   45   52 1   
    51   46   47 1   
    52   46   48 1   
    53   53   54 1   
    54   53   57 1   
    55   54   55 1   
    56   54   58 1   
    57   54   59 1   
    58   55   56 2   
    59   55   60 1   
    60   60   61 1   
    61   60   68 1   
    62   61   62 1   
    63   61   64 1   
    64   61   69 1   
    65   62   63 2   
    66   62   74 1   
    67   64   65 1   
    68   64   70 1   
    69   64   71 1   
    70   65   66 1   
    71   65   67 2   
    72   66   72 1   
    73   66   73 1   
    74   74   75 1   
    75   74   78 1   
    76   75   76 1   
    77   75   79 1   
    78   75   80 1   
    79   76   77 2   
    80   76   81 1   
    81   81   82 1   
    82   81   93 1   
    83   82   83 1   
    84   82   85 1   
    85   82   94 1   
    86   83   84 2   
    87   83  102 1   
    88   85   86 1   
    89   85   95 1   
    90   85   96 1   
    91   86   87 ar  
    92   86   88 ar  
    93   87   89 ar  
    94   87   97 1   
    95   88   90 ar  
    96   88   98 1   
    97   89   91 ar  
    98   89   99 1   
    99   90   91 ar  
   100   90  100 1   
   101   91   92 1   
   102   92  101 1   
   103  102  103 1   
   104  102  110 1   
   105  103  104 1   
   106  103  106 1   
   107  103  111 1   
   108  104  105 2   
   109  104  121 1   
   110  106  107 1   
   111  106  108 1   
   112  106  112 1   
   113  107  109 1   
   114  107  113 1   
   115  107  114 1   
   116  108  115 1   
   117  108  116 1   
   118  108  117 1   
   119  109  118 1   
   120  109  119 1   
   121  109  120 1   
   122  121  122 1   
   123  121  127 1   
   124  122  123 1   
   125  122  125 1   
   126  122  128 1   
   127  123  124 2   
   128  123  132 1   
   129  125  126 1   
   130  125  129 1   
   131  125  130 1   
   132  126  131 1   
   133  132  133 1   
   134  132  137 1   
   135  133  134 1   
   136  133  136 1   
   137  133  138 1   
   138  134  135 2   
   139  134  142 1   
   140  136  139 1   
   141  136  140 1   
   142  136  141 1   
   143  142  143 1   
   144  142  147 1   
   145  143  144 1   
   146  143  146 1   
   147  143  148 1   
   148  144  145 2   
   149  144  152 1   
   150  146  149 1   
   151  146  150 1   
   152  146  151 1   
   153  152  153 1   
   154  152  161 1   
   155  153  154 1   
   156  153  156 1   
   157  153  162 1   
   158  154  155 2   
   159  154  167 1   
   160  156  157 1   
   161  156  163 1   
   162  156  164 1   
   163  157  158 1   
   164  157  165 1   
   165  157  166 1   
   166  158  159 1   
   167  158  160 1   
   168  167  168 1   
   169  167  172 1   
   170  168  169 1   
   171  168  170 1   
   172  168  171 1   
   173  174  175 1   
   174  174  176 1   
   175  177  178 1   
   176  177  179 1   
@<TRIPOS>SUBSTRUCTURE
     1 MOL         1 TEMP              0 ****  ****    0 ROOT
