@<TRIPOS>MOLECULE
MOL
  189   185     1     0     0
SMALL
resp


@<TRIPOS>ATOM
      1 C1          0.8350   -1.6960    6.4260 c3        1 MOL     -0.277202
      2 C2          1.0570   -1.6820    4.8640 c         1 MOL      0.711512
      3 O1          0.3960   -2.3240    4.0680 o         1 MOL     -0.600584
      4 H1          1.4310   -2.4930    6.8710 hc        1 MOL      0.077508
      5 H2          1.1390   -0.7370    6.8460 hc        1 MOL      0.077508
      6 H3         -0.2200   -1.8700    6.6420 hc        1 MOL      0.077508
      7 N1          2.0970   -0.8710    4.4380 n         1 MOL     -0.667558
      8 C3          2.6440   -0.8900    3.0450 c3        1 MOL      0.308817
      9 C4          3.4630   -2.2230    2.7990 c         1 MOL      0.400136
     10 O2          4.5610   -2.4770    3.3230 o         1 MOL     -0.523485
     11 C5          3.6280    0.2260    2.7610 c3        1 MOL     -0.362802
     12 C6          4.2770    0.2790    1.4180 c         1 MOL      0.873006
     13 O3          3.7550   -0.4680    0.5980 o         1 MOL     -0.713868
     14 O4          5.3190    1.0140    1.1860 o         1 MOL     -0.713868
     15 H4          2.6450   -0.3170    5.0730 hn        1 MOL      0.339166
     16 H5          1.8450   -0.8730    2.3030 h1        1 MOL      0.003658
     17 H6          4.4710    0.1180    3.4480 hc        1 MOL      0.073986
     18 H7          3.0930    1.1630    2.9170 hc        1 MOL      0.073986
     19 N2          2.7790   -3.1390    2.0700 n         1 MOL     -0.252439
     20 C7          3.2710   -4.4910    1.8840 c3        1 MOL      0.051117
     21 C8          4.1680   -4.7030    0.6160 c         1 MOL      0.329502
     22 O5          4.8110   -5.7460    0.5330 o         1 MOL     -0.519462
     23 C9          2.1050   -5.5480    1.8440 c3        1 MOL     -0.188027
     24 C10         0.9820   -5.2230    0.8720 c3        1 MOL     -0.071750
     25 C11         1.1810   -5.5760   -0.5810 c3        1 MOL      0.074036
     26 C12        -0.0600   -5.1610   -1.3040 c3        1 MOL     -0.161286
     27 N3          0.0490   -3.7130   -1.5930 n4        1 MOL     -0.231420
     28 H8          1.8480   -2.8750    1.7970 hn        1 MOL      0.295991
     29 H9          3.9800   -4.6650    2.7000 h1        1 MOL      0.106946
     30 H10         1.7850   -5.5740    2.8850 hc        1 MOL      0.059574
     31 H11         2.5720   -6.5110    1.6290 hc        1 MOL      0.059574
     32 H12         0.8340   -4.1470    1.0250 hc        1 MOL      0.051164
     33 H13         0.0730   -5.7610    1.1340 hc        1 MOL      0.051164
     34 H14         1.2000   -6.6550   -0.7470 hc        1 MOL      0.049791
     35 H15         2.0670   -5.1070   -1.0140 hc        1 MOL      0.049791
     36 H16        -0.9070   -5.4390   -0.6860 hx        1 MOL      0.088789
     37 H17        -0.2080   -5.6860   -2.2340 hx        1 MOL      0.088789
     38 H18         0.8430   -3.4700   -2.1600 hn        1 MOL      0.253632
     39 H19        -0.8030   -3.3460   -2.0010 hn        1 MOL      0.253632
     40 H20         0.1590   -3.2180   -0.7160 hn        1 MOL      0.253632
     41 N4          4.2880   -3.6800   -0.2350 n         1 MOL     -0.127640
     42 C13         5.2570   -3.7280   -1.3470 c3        1 MOL      0.078810
     43 C14         6.5310   -2.8250   -1.1610 c         1 MOL      0.322800
     44 O6          7.5500   -2.9050   -1.8800 o         1 MOL     -0.496747
     45 C15         4.6810   -3.2450   -2.7070 c3        1 MOL     -0.264160
     46 C16         3.1240   -3.4000   -2.7290 c         1 MOL      0.752768
     47 O7          2.4890   -2.6110   -1.9950 o         1 MOL     -0.694357
     48 O8          2.5200   -4.2900   -3.3460 o         1 MOL     -0.694357
     49 H21         3.7070   -2.8510   -0.1580 hn        1 MOL      0.099087
     50 H22         5.6920   -4.7200   -1.4360 h1        1 MOL      0.092726
     51 H23         5.1100   -3.8540   -3.5070 hc        1 MOL      0.074300
     52 H24         4.8220   -2.1670   -2.7760 hc        1 MOL      0.074300
     53 N5          6.5190   -1.9200   -0.2090 n         1 MOL     -0.075693
     54 C17         7.5260   -0.9690    0.0680 c3        1 MOL     -0.408266
     55 C18         7.6950    0.0800   -0.9890 c         1 MOL      0.514681
     56 O9          8.8760    0.4390   -1.3410 o         1 MOL     -0.546576
     57 H25         5.6800   -1.7810    0.3240 hn        1 MOL      0.148475
     58 H26         8.4540   -1.5480    0.0380 h1        1 MOL      0.179719
     59 H27         7.3600   -0.4530    1.0180 h1        1 MOL      0.179719
     60 N6          6.5890    0.4930   -1.6350 n         1 MOL     -0.215391
     61 C19         6.5550    1.5950   -2.6240 c3        1 MOL     -0.042158
     62 C20         6.5310    2.9210   -1.8900 c         1 MOL      0.455588
     63 O10         6.9720    3.9160   -2.4560 o         1 MOL     -0.559986
     64 C21         5.3560    1.3850   -3.5270 c3        1 MOL     -0.220405
     65 C22         4.0830    1.0780   -2.7710 c         1 MOL      0.802663
     66 O11         3.3030    0.2520   -3.2730 o         1 MOL     -0.792892
     67 O12         3.7130    1.6460   -1.7000 o         1 MOL     -0.792892
     68 H28         5.7420    0.1020   -1.2580 hn        1 MOL      0.195617
     69 H29         7.4590    1.5460   -3.2170 h1        1 MOL      0.124655
     70 H30         5.6040    0.6010   -4.2420 hc        1 MOL      0.078941
     71 H31         5.1720    2.2670   -4.1430 hc        1 MOL      0.078941
     72 N7          6.3030    2.8720   -0.5600 n         1 MOL     -0.202531
     73 C23         6.2760    3.9190    0.3910 c3        1 MOL     -0.109380
     74 C24         4.9570    4.5700    0.4890 c         1 MOL      0.475053
     75 O13         4.9310    5.5870    1.1960 o         1 MOL     -0.571647
     76 H32         5.7910    2.0790   -0.2030 hn        1 MOL      0.194064
     77 H33         7.0380    4.6880    0.3240 h1        1 MOL      0.108698
     78 H34         6.5780    3.4510    1.3270 h1        1 MOL      0.108698
     79 N8          3.8470    3.9780    0.0080 n         1 MOL     -0.218069
     80 C25         2.4320    4.3720    0.0690 c3        1 MOL      0.017673
     81 C26         1.4590    3.2700    0.4630 c         1 MOL      0.675724
     82 O14         1.7350    2.0960    0.4070 o         1 MOL     -0.605300
     83 C27         1.8720    5.0660   -1.2160 c3        1 MOL      0.156175
     84 C28         2.2900    6.5300   -1.2760 c3        1 MOL     -0.342625
     85 O15         2.3850    4.4140   -2.3510 oh        1 MOL     -0.585004
     86 H35         4.0220    3.1310   -0.5130 hn        1 MOL      0.150046
     87 H36         2.3640    5.0980    0.8760 h1        1 MOL      0.045285
     88 H37         0.7850    4.9720   -1.2480 h1        1 MOL      0.093209
     89 H38         3.2290    4.8750   -2.3160 ho        1 MOL      0.419358
     90 H39         1.7780    7.0960   -2.0380 hc        1 MOL      0.101526
     91 H40         2.0160    7.0520   -0.3670 hc        1 MOL      0.101526
     92 H41         3.3630    6.5540   -1.4890 hc        1 MOL      0.101526
     93 N9          0.3400    3.7020    0.9500 n         1 MOL     -0.603802
     94 C29        -0.8610    3.0200    1.1870 c3        1 MOL      0.011379
     95 C30        -1.9460    3.3850    0.1760 c         1 MOL      0.339635
     96 O16        -2.2880    4.5490   -0.0400 o         1 MOL     -0.502032
     97 C31        -1.2890    3.4690    2.6350 c3        1 MOL      0.216111
     98 C32        -0.2750    3.0100    3.6830 c3        1 MOL      0.082924
     99 C33        -2.7340    3.0610    2.9700 c3        1 MOL      0.051355
    100 C34        -0.5960    3.3180    5.1500 c3        1 MOL     -0.246160
    101 H42         0.2760    4.7130    0.9510 hn        1 MOL      0.291900
    102 H43        -0.6020    1.9570    1.1740 h1        1 MOL      0.136466
    103 H44        -1.3440    4.5600    2.6450 hc        1 MOL     -0.023012
    104 H45         0.6230    3.5660    3.4320 hc        1 MOL     -0.013529
    105 H46        -0.1570    1.9350    3.6100 hc        1 MOL     -0.013529
    106 H47        -3.0230    3.5890    3.8730 hc        1 MOL     -0.042791
    107 H48        -3.5090    3.3780    2.2730 hc        1 MOL     -0.042791
    108 H49        -2.6410    1.9880    3.1230 hc        1 MOL     -0.042791
    109 H50        -1.4180    2.6420    5.3860 hc        1 MOL      0.059417
    110 H51         0.2690    3.2100    5.7980 hc        1 MOL      0.059417
    111 H52        -0.8550    4.3690    5.2900 hc        1 MOL      0.059417
    112 N10        -2.4960    2.2840   -0.4250 n         1 MOL     -0.057934
    113 C35        -3.7400    2.2180   -1.2490 c3        1 MOL     -0.162419
    114 C36        -5.0050    2.1250   -0.4280 c         1 MOL      0.500538
    115 O17        -5.0290    1.7870    0.8090 o         1 MOL     -0.344326
    116 C37        -3.8100    0.9640   -2.1430 c3        1 MOL      0.026571
    117 C38        -2.5500    0.8630   -2.9990 c3        1 MOL     -0.487934
    118 O18        -3.8530   -0.1780   -1.3410 oh        1 MOL     -0.262761
    119 H53        -2.1370    1.3770   -0.1710 hn        1 MOL      0.169121
    120 H54        -3.6920    3.0000   -2.0100 h1        1 MOL      0.131379
    121 H55        -4.7080    1.0440   -2.7510 h1        1 MOL      0.076424
    122 H56        -3.4430   -0.9280   -1.7870 ho        1 MOL      0.364971
    123 H57        -1.6420    0.7640   -2.4210 hc        1 MOL      0.132028
    124 H58        -2.5140    0.0070   -3.6660 hc        1 MOL      0.132028
    125 H59        -2.3590    1.7650   -3.5760 hc        1 MOL      0.132028
    126 N11        -6.1370    2.3450   -1.1200 n         1 MOL     -0.445489
    127 C39        -7.5300    2.1400   -0.6570 c3        1 MOL     -0.174204
    128 C40        -7.7650    0.6950   -0.1380 c         1 MOL      0.398275
    129 O19        -8.5030    0.5140    0.8540 o         1 MOL     -0.451096
    130 C41        -8.5070    2.5130   -1.8050 c3        1 MOL      0.460476
    131 C42        -9.9910    1.9930   -1.5370 c3        1 MOL     -0.197840
    132 O20        -8.4770    3.8810   -2.2130 oh        1 MOL     -0.621348
    133 H60        -6.0880    2.4970   -2.1150 hn        1 MOL      0.259932
    134 H61        -7.5960    2.7560    0.2400 h1        1 MOL      0.170394
    135 H62        -8.1860    2.0110   -2.7130 h1        1 MOL     -0.043322
    136 H63        -7.5750    4.2000   -2.2230 ho        1 MOL      0.391581
    137 H64       -10.6800    2.5330   -2.1920 hc        1 MOL      0.059039
    138 H65        -9.9330    0.9580   -1.8630 hc        1 MOL      0.059039
    139 H66       -10.2410    1.9770   -0.4770 hc        1 MOL      0.059039
    140 N12        -6.9080   -0.3040   -0.5810 n         1 MOL     -0.254531
    141 C43        -6.9620   -1.7110   -0.0990 c3        1 MOL      0.086187
    142 C44        -6.0630   -1.9590    1.1450 c         1 MOL      0.289614
    143 O21        -6.5350   -2.6050    2.0730 o         1 MOL     -0.470409
    144 C45        -6.7010   -2.7290   -1.2020 c3        1 MOL     -0.187456
    145 C46        -7.3120   -2.5730   -2.6080 c3        1 MOL     -0.107353
    146 C47        -8.8640   -2.6250   -2.5860 c3        1 MOL     -0.075407
    147 C48        -9.3380   -2.9830   -4.0110 c3        1 MOL      0.038274
    148 N13       -10.7840   -3.2930   -4.0890 n4        1 MOL     -0.380268
    149 H67        -6.2740   -0.1210   -1.3480 hn        1 MOL      0.137103
    150 H68        -7.9520   -1.8820    0.3300 h1        1 MOL      0.073323
    151 H69        -7.0010   -3.6970   -0.7910 hc        1 MOL      0.089807
    152 H70        -5.6300   -2.7430   -1.3990 hc        1 MOL      0.089807
    153 H71        -6.9300   -3.4050   -3.2070 hc        1 MOL      0.043646
    154 H72        -6.9730   -1.7410   -3.2310 hc        1 MOL      0.043646
    155 H73        -9.1830   -1.6740   -2.1670 hc        1 MOL      0.063608
    156 H74        -9.1820   -3.4130   -1.9030 hc        1 MOL      0.063608
    157 H75        -8.7620   -3.8470   -4.3550 hx        1 MOL      0.095154
    158 H76        -9.1620   -2.1110   -4.6470 hx        1 MOL      0.095154
    159 H77       -10.9990   -3.8570   -4.9000 hn        1 MOL      0.331047
    160 H78       -10.9120   -3.9310   -3.3120 hn        1 MOL      0.331047
    161 H79       -11.3440   -2.4570   -4.0050 hn        1 MOL      0.331047
    162 N14        -4.8730   -1.3390    1.2690 n         1 MOL     -0.031182
    163 C49        -3.9020   -1.3900    2.3760 c3        1 MOL     -0.168072
    164 C50        -4.4590   -0.5930    3.5550 c         1 MOL      0.467817
    165 O22        -4.4260   -1.0100    4.6980 o         1 MOL     -0.529796
    166 C51        -2.5340   -0.8060    1.9930 c3        1 MOL      0.261953
    167 C52        -1.8400   -1.7240    1.0360 c3        1 MOL     -0.288276
    168 C53        -0.5760   -1.0930    0.4570 c         1 MOL      0.646947
    169 O23        -0.6270   -0.0920   -0.2640 o         1 MOL     -0.700217
    170 O24         0.5000   -1.7390    0.3100 o         1 MOL     -0.700217
    171 H80        -4.5890   -0.8290    0.4500 hn        1 MOL      0.017898
    172 H81        -3.7720   -2.4010    2.7560 h1        1 MOL      0.116189
    173 H82        -1.9830   -0.8550    2.9390 hc        1 MOL     -0.009671
    174 H83        -2.8150    0.1310    1.5330 hc        1 MOL     -0.009671
    175 H84        -2.4950   -1.9340    0.1960 hc        1 MOL      0.032899
    176 H85        -1.6820   -2.6970    1.5040 hc        1 MOL      0.032899
    177 N15        -5.2800    0.4410    3.2490 n         1 MOL     -0.067601
    178 C54        -5.9520    1.2480    4.3070 c3        1 MOL     -0.404246
    179 H86        -6.7750    1.8110    3.8660 h1        1 MOL      0.140475
    180 H87        -6.3380    0.5850    5.0800 h1        1 MOL      0.140475
    181 H88        -5.2340    1.9400    4.7470 h1        1 MOL      0.140475
    182 H89        -5.2430    0.7560    2.2830 hn        1 MOL      0.128241
    183 Ca1         1.8210   -0.0800   -1.2260 Ca        1 MOL      1.711930
    184 O25         0.5600   -1.1490   -3.3410 oh        1 MOL     -0.786494
    185 H90         0.1330   -1.8540   -3.8290 ho        1 MOL      0.394720
    186 H91         0.6610   -0.4450   -3.9760 ho        1 MOL      0.394720
    187 O26         0.7500    2.1330   -2.3250 oh        1 MOL     -0.786494
    188 H92         0.2580    2.2990   -3.1280 ho        1 MOL      0.394720
    189 H93         1.4590    2.7770   -2.3490 ho        1 MOL      0.394720
@<TRIPOS>BOND
     1    1    2 1   
     2    1    4 1   
     3    1    5 1   
     4    1    6 1   
     5    2    3 2   
     6    2    7 1   
     7    7    8 1   
     8    7   15 1   
     9    8    9 1   
    10    8   11 1   
    11    8   16 1   
    12    9   10 2   
    13    9   19 1   
    14   11   12 1   
    15   11   17 1   
    16   11   18 1   
    17   12   13 1   
    18   12   14 1   
    19   19   20 1   
    20   19   28 1   
    21   20   21 1   
    22   20   23 1   
    23   20   29 1   
    24   21   22 2   
    25   21   41 1   
    26   23   24 1   
    27   23   30 1   
    28   23   31 1   
    29   24   25 1   
    30   24   32 1   
    31   24   33 1   
    32   25   26 1   
    33   25   34 1   
    34   25   35 1   
    35   26   27 1   
    36   26   36 1   
    37   26   37 1   
    38   27   38 1   
    39   27   39 1   
    40   27   40 1   
    41   41   42 1   
    42   41   49 1   
    43   42   43 1   
    44   42   45 1   
    45   42   50 1   
    46   43   44 2   
    47   43   53 1   
    48   45   46 1   
    49   45   51 1   
    50   45   52 1   
    51   46   47 1   
    52   46   48 1   
    53   53   54 1   
    54   53   57 1   
    55   54   55 1   
    56   54   58 1   
    57   54   59 1   
    58   55   56 2   
    59   55   60 1   
    60   60   61 1   
    61   60   68 1   
    62   61   62 1   
    63   61   64 1   
    64   61   69 1   
    65   62   63 2   
    66   62   72 1   
    67   64   65 1   
    68   64   70 1   
    69   64   71 1   
    70   65   66 1   
    71   65   67 1   
    72   72   73 1   
    73   72   76 1   
    74   73   74 1   
    75   73   77 1   
    76   73   78 1   
    77   74   75 2   
    78   74   79 1   
    79   79   80 1   
    80   79   86 1   
    81   80   81 1   
    82   80   83 1   
    83   80   87 1   
    84   81   82 2   
    85   81   93 1   
    86   83   84 1   
    87   83   85 1   
    88   83   88 1   
    89   84   90 1   
    90   84   91 1   
    91   84   92 1   
    92   85   89 1   
    93   93   94 1   
    94   93  101 1   
    95   94   95 1   
    96   94   97 1   
    97   94  102 1   
    98   95   96 2   
    99   95  112 1   
   100   97   98 1   
   101   97   99 1   
   102   97  103 1   
   103   98  100 1   
   104   98  104 1   
   105   98  105 1   
   106   99  106 1   
   107   99  107 1   
   108   99  108 1   
   109  100  109 1   
   110  100  110 1   
   111  100  111 1   
   112  112  113 1   
   113  112  119 1   
   114  113  114 1   
   115  113  116 1   
   116  113  120 1   
   117  114  115 2   
   118  114  126 1   
   119  116  117 1   
   120  116  118 1   
   121  116  121 1   
   122  117  123 1   
   123  117  124 1   
   124  117  125 1   
   125  118  122 1   
   126  126  127 1   
   127  126  133 1   
   128  127  128 1   
   129  127  130 1   
   130  127  134 1   
   131  128  129 2   
   132  128  140 1   
   133  130  131 1   
   134  130  132 1   
   135  130  135 1   
   136  131  137 1   
   137  131  138 1   
   138  131  139 1   
   139  132  136 1   
   140  140  141 1   
   141  140  149 1   
   142  141  142 1   
   143  141  144 1   
   144  141  150 1   
   145  142  143 2   
   146  142  162 1   
   147  144  145 1   
   148  144  151 1   
   149  144  152 1   
   150  145  146 1   
   151  145  153 1   
   152  145  154 1   
   153  146  147 1   
   154  146  155 1   
   155  146  156 1   
   156  147  148 1   
   157  147  157 1   
   158  147  158 1   
   159  148  159 1   
   160  148  160 1   
   161  148  161 1   
   162  162  163 1   
   163  162  171 1   
   164  163  164 1   
   165  163  166 1   
   166  163  172 1   
   167  164  165 2   
   168  164  177 1   
   169  166  167 1   
   170  166  173 1   
   171  166  174 1   
   172  167  168 1   
   173  167  175 1   
   174  167  176 1   
   175  168  169 1   
   176  168  170 1   
   177  177  178 1   
   178  177  182 1   
   179  178  179 1   
   180  178  180 1   
   181  178  181 1   
   182  184  185 1   
   183  184  186 1   
   184  187  188 1   
   185  187  189 1   
@<TRIPOS>SUBSTRUCTURE
     1 MOL         1 TEMP              0 ****  ****    0 ROOT
