@<TRIPOS>MOLECULE
MOL
  182   178     1     0     0
SMALL
resp


@<TRIPOS>ATOM
      1 C1         -2.3780   -2.5830    5.3330 c3        1 MOL     -0.366392
      2 C2         -1.6050   -2.5390    3.9770 c         1 MOL      0.732897
      3 O1         -2.2810   -2.4920    2.9350 o         1 MOL     -0.618006
      4 H1         -3.0750   -3.4220    5.3260 hc        1 MOL      0.095176
      5 H2         -1.6700   -2.7080    6.1530 hc        1 MOL      0.095176
      6 H3         -2.9300   -1.6530    5.4680 hc        1 MOL      0.095176
      7 N1         -0.2600   -2.6510    3.9600 n         1 MOL     -0.663239
      8 C3          0.4770   -2.4830    2.6830 c3        1 MOL      0.297670
      9 C4          0.5440   -3.8000    1.9120 c         1 MOL      0.558611
     10 O2          1.1520   -4.7550    2.3770 o         1 MOL     -0.578886
     11 C5          1.7580   -1.6390    3.0750 c3        1 MOL     -0.034543
     12 C6          2.7130   -1.3860    1.8790 c         1 MOL      0.763884
     13 O3          3.8410   -0.9140    2.1280 o         1 MOL     -0.723397
     14 O4          2.3110   -1.7060    0.7490 o         1 MOL     -0.723397
     15 H4          0.2340   -2.4530    4.8150 hn        1 MOL      0.342606
     16 H5         -0.1430   -1.7820    2.1250 h1        1 MOL     -0.268996
     17 H6          2.2990   -2.1760    3.8570 hc        1 MOL      0.005717
     18 H7          1.4570   -0.6720    3.4740 hc        1 MOL      0.005717
     19 N2          0.0850   -3.7710    0.6640 n         1 MOL     -0.328676
     20 C7         -0.1120   -4.9250   -0.2200 c3        1 MOL     -0.165641
     21 C8          1.0280   -5.3270   -1.1010 c         1 MOL      0.552469
     22 O5          0.9290   -6.2840   -1.7720 o         1 MOL     -0.564609
     23 C9         -1.4680   -4.7170   -0.9750 c3        1 MOL     -0.163080
     24 C10        -2.6040   -4.8290    0.0530 c3        1 MOL      0.049047
     25 C11        -3.9100   -4.7040   -0.7440 c3        1 MOL      0.107331
     26 C12        -5.1590   -5.2060    0.0180 c3        1 MOL     -0.027374
     27 N3         -4.9720   -6.5500    0.5670 n4        1 MOL     -0.304065
     28 H8         -0.2250   -2.8810    0.3130 hn        1 MOL      0.383065
     29 H9         -0.1720   -5.8020    0.4340 h1        1 MOL      0.128675
     30 H10        -1.5270   -5.4980   -1.7450 hc        1 MOL      0.067515
     31 H11        -1.4640   -3.7120   -1.3930 hc        1 MOL      0.067515
     32 H12        -2.6420   -3.9770    0.7350 hc        1 MOL      0.012763
     33 H13        -2.4130   -5.7880    0.5300 hc        1 MOL      0.012763
     34 H14        -3.7790   -5.2120   -1.6900 hc        1 MOL     -0.013786
     35 H15        -4.1050   -3.6570   -0.9960 hc        1 MOL     -0.013786
     36 H16        -5.9380   -5.3490   -0.7310 hx        1 MOL      0.098487
     37 H17        -5.4210   -4.4820    0.7830 hx        1 MOL      0.098487
     38 H18        -4.0450   -6.6850    0.9630 hn        1 MOL      0.306209
     39 H19        -5.6510   -6.7140    1.2940 hn        1 MOL      0.306209
     40 H20        -5.0590   -7.2710   -0.1330 hn        1 MOL      0.306209
     41 N4          2.1780   -4.6270   -1.0370 n         1 MOL     -0.173542
     42 C13         3.5130   -4.9600   -1.5760 c3        1 MOL     -0.042364
     43 C14         4.6130   -4.7300   -0.5340 c         1 MOL      0.357858
     44 O6          5.7280   -5.2940   -0.6640 o         1 MOL     -0.520431
     45 C15         3.8450   -4.3080   -2.9350 c3        1 MOL     -0.065591
     46 C16         3.8520   -2.8370   -3.0340 c         1 MOL      0.845536
     47 O7          3.9610   -2.2770   -4.1570 o         1 MOL     -0.773303
     48 O8          3.5920   -2.1810   -2.0280 o         1 MOL     -0.773303
     49 H21         2.1480   -3.8080   -0.4400 hn        1 MOL      0.039380
     50 H22         3.4010   -6.0280   -1.7600 h1        1 MOL      0.102749
     51 H23         3.1810   -4.7060   -3.6990 hc        1 MOL      0.025822
     52 H24         4.8060   -4.6650   -3.2780 hc        1 MOL      0.025822
     53 N5          4.3630   -3.9320    0.4680 n         1 MOL     -0.087745
     54 C17         5.3620   -3.5990    1.4490 c3        1 MOL     -0.221691
     55 C18         6.2790   -2.5080    0.8960 c         1 MOL      0.535414
     56 O9          7.4300   -2.4150    1.3480 o         1 MOL     -0.588206
     57 H25         3.4560   -3.4830    0.4860 hn        1 MOL      0.144345
     58 H26         5.9330   -4.5000    1.6890 h1        1 MOL      0.128152
     59 H27         4.9080   -3.1890    2.3600 h1        1 MOL      0.128152
     60 N6          5.8760   -1.5560    0.0190 n         1 MOL     -0.128806
     61 C19         6.5310   -0.3690   -0.4730 c3        1 MOL     -0.205760
     62 C20         6.4560    0.9140    0.4670 c         1 MOL      0.385064
     63 O10         7.0220    1.8930    0.0270 o         1 MOL     -0.455996
     64 C21         6.1440   -0.1520   -1.9380 c3        1 MOL     -0.062991
     65 C22         4.9110    0.7100   -2.1810 c         1 MOL      0.550080
     66 N7          4.8260    1.3910   -3.3080 n         1 MOL     -0.662344
     67 O11         4.0020    0.7900   -1.3780 o         1 MOL     -0.545154
     68 H28         4.9070   -1.7110   -0.2390 hn        1 MOL      0.111263
     69 H29         7.5960   -0.5960   -0.4770 h1        1 MOL      0.162077
     70 H30         5.9540   -1.1060   -2.4340 hc        1 MOL      0.067708
     71 H31         7.0350    0.2320   -2.4270 hc        1 MOL      0.067708
     72 H32         5.4450    1.1990   -4.0830 hn        1 MOL      0.339422
     73 H33         3.9690    1.9180   -3.4380 hn        1 MOL      0.339422
     74 N8          5.8880    0.9180    1.6630 n         1 MOL     -0.242472
     75 C23         5.8800    2.1100    2.5880 c3        1 MOL     -0.121645
     76 C24         4.7570    3.1100    2.3670 c         1 MOL      0.545885
     77 O12         4.7600    4.2150    2.8940 o         1 MOL     -0.560186
     78 H34         5.4420    0.0570    1.9310 hn        1 MOL      0.293882
     79 H35         6.8480    2.6050    2.5730 h1        1 MOL      0.094070
     80 H36         5.7940    1.7540    3.6180 h1        1 MOL      0.094070
     81 N9          3.7990    2.7500    1.5420 n         1 MOL     -0.234941
     82 C25         2.5990    3.4700    1.1660 c3        1 MOL      0.007686
     83 C26         1.3030    2.5180    1.1040 c         1 MOL      0.438978
     84 O13         1.2600    1.3770    0.6730 o         1 MOL     -0.579536
     85 C27         2.8800    4.0380   -0.2060 c3        1 MOL     -0.022810
     86 C28         4.1020    4.8150   -0.3650 ca        1 MOL      0.209513
     87 C29         5.1720    4.3910   -1.1920 ca        1 MOL     -0.363040
     88 C30         4.2410    6.0680    0.3080 ca        1 MOL     -0.363040
     89 C31         6.3610    5.1260   -1.3720 ca        1 MOL     -0.115496
     90 C32         5.4270    6.7790    0.1280 ca        1 MOL     -0.115496
     91 C33         6.4800    6.3730   -0.6970 ca        1 MOL      0.261411
     92 O14         7.5770    7.1260   -0.7530 oh        1 MOL     -0.486623
     93 H37         3.9070    1.8440    1.1000 hn        1 MOL      0.156074
     94 H38         2.4500    4.2610    1.8970 h1        1 MOL      0.066401
     95 H39         2.0310    4.6090   -0.5680 hc        1 MOL      0.028582
     96 H40         2.8850    3.2340   -0.9480 hc        1 MOL      0.028582
     97 H41         5.2470    3.3620   -1.5240 ha        1 MOL      0.181780
     98 H42         3.5290    6.4770    1.0280 ha        1 MOL      0.181780
     99 H43         7.1730    4.8760   -2.0230 ha        1 MOL      0.110629
    100 H44         5.5650    7.6700    0.7230 ha        1 MOL      0.110629
    101 H45         7.6020    7.9150   -0.2080 ho        1 MOL      0.369880
    102 N10         0.1400    3.1330    1.4430 n         1 MOL     -0.399886
    103 C34        -1.1590    2.5890    1.1740 c3        1 MOL     -0.139190
    104 C35        -1.9950    3.5990    0.4000 c         1 MOL      0.551133
    105 O15        -1.9650    4.8040    0.7270 o         1 MOL     -0.548043
    106 C36        -2.0090    2.0360    2.3480 c3        1 MOL      0.092794
    107 C37        -2.0930    3.1660    3.4240 c3        1 MOL     -0.159931
    108 C38        -1.2230    0.8240    2.9390 c3        1 MOL     -0.763822
    109 C39        -2.3020    2.6580    4.9070 c3        1 MOL     -0.155751
    110 H46         0.2490    4.0720    1.7830 hn        1 MOL      0.299989
    111 H47        -1.1040    1.7270    0.5170 h1        1 MOL      0.247215
    112 H48        -2.9690    1.6470    2.0350 hc        1 MOL      0.034139
    113 H49        -2.8900    3.8520    3.1470 hc        1 MOL      0.096682
    114 H50        -1.1450    3.7000    3.5010 hc        1 MOL      0.096682
    115 H51        -1.8360    0.4350    3.7480 hc        1 MOL      0.258165
    116 H52        -1.1490    0.0580    2.1730 hc        1 MOL      0.258165
    117 H53        -0.2120    1.1070    3.2350 hc        1 MOL      0.258165
    118 H54        -3.2840    2.1940    5.0320 hc        1 MOL      0.039592
    119 H55        -1.4900    2.0350    5.2660 hc        1 MOL      0.039592
    120 H56        -2.3580    3.5720    5.5100 hc        1 MOL      0.039592
    121 N11        -2.6780    3.0810   -0.6660 n         1 MOL     -0.450434
    122 C40        -3.8100    3.7060   -1.3560 c3        1 MOL      0.209131
    123 C41        -5.1550    3.5710   -0.5890 c         1 MOL      0.419224
    124 O16        -5.1360    3.0300    0.5070 o         1 MOL     -0.400325
    125 C42        -3.8180    3.1510   -2.7070 c3        1 MOL     -0.302672
    126 O17        -4.2990    1.7760   -2.6360 oh        1 MOL     -0.333118
    127 H57        -2.5440    2.1030   -0.8530 hn        1 MOL      0.229868
    128 H58        -3.5990    4.7670   -1.5330 h1        1 MOL      0.056483
    129 H59        -2.8040    3.1220   -3.1060 h1        1 MOL      0.136747
    130 H60        -4.4460    3.7670   -3.3480 h1        1 MOL      0.136747
    131 H61        -4.2780    1.3560   -3.5100 ho        1 MOL      0.358164
    132 N12        -6.2170    4.1900   -1.0860 n         1 MOL     -0.440525
    133 C43        -7.5370    3.9410   -0.5270 c3        1 MOL      0.150821
    134 C44        -8.0740    2.5370   -0.8410 c         1 MOL      0.405239
    135 O18        -8.7870    1.9710   -0.0640 o         1 MOL     -0.498063
    136 C45        -8.5370    4.9600   -1.1040 c3        1 MOL     -0.248034
    137 H62        -6.1790    4.7290   -1.9370 hn        1 MOL      0.279111
    138 H63        -7.5570    4.1010    0.5550 h1        1 MOL      0.090163
    139 H64        -9.5900    4.9750   -0.7810 hc        1 MOL      0.079338
    140 H65        -8.1710    5.9510   -0.8440 hc        1 MOL      0.079338
    141 H66        -8.6210    4.8670   -2.1830 hc        1 MOL      0.079338
    142 N13        -7.5750    1.9810   -1.9570 n         1 MOL     -0.281675
    143 C46        -7.9440    0.5860   -2.3250 c3        1 MOL      0.049682
    144 C47        -7.2710   -0.4630   -1.5230 c         1 MOL      0.448272
    145 O19        -7.9220   -1.4710   -1.3010 o         1 MOL     -0.525330
    146 C48        -7.4940    0.2630   -3.7520 c3        1 MOL     -0.289733
    147 H67        -7.1110    2.6030   -2.5930 hn        1 MOL      0.215196
    148 H68        -9.0200    0.4370   -2.3570 h1        1 MOL      0.112199
    149 H69        -7.8510   -0.7440   -3.9760 hc        1 MOL      0.083227
    150 H70        -7.9670    0.9040   -4.5050 hc        1 MOL      0.083227
    151 H71        -6.4120    0.2520   -3.7850 hc        1 MOL      0.083227
    152 N14        -6.0390   -0.1760   -0.9920 n         1 MOL     -0.042732
    153 C49        -5.3480   -1.0640   -0.0290 c3        1 MOL     -0.069002
    154 C50        -6.0730   -1.1080    1.3020 c         1 MOL      0.471257
    155 O20        -6.3900   -2.1370    1.8320 o         1 MOL     -0.533373
    156 C51        -3.8760   -0.6320    0.1960 c3        1 MOL      0.069074
    157 C52        -2.9750   -0.9210   -1.0210 c3        1 MOL      0.386610
    158 C53        -1.5570   -0.4900   -1.0320 c         1 MOL      0.581220
    159 O21        -0.6730   -1.2710   -0.5630 o         1 MOL     -0.691341
    160 O22        -1.3910    0.6570   -1.4990 o         1 MOL     -0.691341
    161 H72        -5.5680    0.6690   -1.2630 hn        1 MOL     -0.053406
    162 H73        -5.3870   -2.0880   -0.4180 h1        1 MOL      0.012924
    163 H74        -3.4400   -1.1820    1.0240 hc        1 MOL     -0.007320
    164 H75        -3.7740    0.4270    0.4360 hc        1 MOL     -0.007320
    165 H76        -3.3760   -0.4060   -1.8980 hc        1 MOL     -0.157840
    166 H77        -2.9900   -1.9870   -1.2540 hc        1 MOL     -0.157840
    167 N15        -6.3520    0.1110    1.7800 n         1 MOL     -0.073800
    168 C54        -7.1070    0.3070    3.0150 c3        1 MOL     -0.343057
    169 H78        -7.7990   -0.5240    3.1530 h1        1 MOL      0.132741
    170 H79        -6.4190    0.3500    3.8600 h1        1 MOL      0.132741
    171 H80        -7.6680    1.2390    2.9560 h1        1 MOL      0.132741
    172 H81        -6.2430    0.8440    1.0910 hn        1 MOL      0.136612
    173 Ca1         1.6060   -0.3720   -1.3230 Ca        1 MOL      1.794355
    174 O23         0.5990   -2.4390   -3.0580 oh        1 MOL     -0.877446
    175 H82        -0.3030   -2.7650   -3.1180 ho        1 MOL      0.415921
    176 H83         0.9690   -2.6140   -3.9260 ho        1 MOL      0.415921
    177 O24         2.2070   -0.0080   -4.0530 oh        1 MOL     -0.877446
    178 H84         2.9290   -0.6270   -4.0200 ho        1 MOL      0.415921
    179 H85         1.8700   -0.0790   -4.9490 ho        1 MOL      0.415921
    180 O25         0.7980    1.9340   -2.1830 oh        1 MOL     -0.877446
    181 H86        -0.1270    1.6790   -2.1920 ho        1 MOL      0.415921
    182 H87         0.7910    2.8670   -2.3820 ho        1 MOL      0.415921
@<TRIPOS>BOND
     1    1    2 1   
     2    1    4 1   
     3    1    5 1   
     4    1    6 1   
     5    2    3 2   
     6    2    7 1   
     7    7    8 1   
     8    7   15 1   
     9    8    9 1   
    10    8   11 1   
    11    8   16 1   
    12    9   10 2   
    13    9   19 1   
    14   11   12 1   
    15   11   17 1   
    16   11   18 1   
    17   12   13 1   
    18   12   14 1   
    19   19   20 1   
    20   19   28 1   
    21   20   21 1   
    22   20   23 1   
    23   20   29 1   
    24   21   22 2   
    25   21   41 1   
    26   23   24 1   
    27   23   30 1   
    28   23   31 1   
    29   24   25 1   
    30   24   32 1   
    31   24   33 1   
    32   25   26 1   
    33   25   34 1   
    34   25   35 1   
    35   26   27 1   
    36   26   36 1   
    37   26   37 1   
    38   27   38 1   
    39   27   39 1   
    40   27   40 1   
    41   41   42 1   
    42   41   49 1   
    43   42   43 1   
    44   42   45 1   
    45   42   50 1   
    46   43   44 2   
    47   43   53 1   
    48   45   46 1   
    49   45   51 1   
    50   45   52 1   
    51   46   47 1   
    52   46   48 1   
    53   53   54 1   
    54   53   57 1   
    55   54   55 1   
    56   54   58 1   
    57   54   59 1   
    58   55   56 2   
    59   55   60 1   
    60   60   61 1   
    61   60   68 1   
    62   61   62 1   
    63   61   64 1   
    64   61   69 1   
    65   62   63 2   
    66   62   74 1   
    67   64   65 1   
    68   64   70 1   
    69   64   71 1   
    70   65   66 1   
    71   65   67 2   
    72   66   72 1   
    73   66   73 1   
    74   74   75 1   
    75   74   78 1   
    76   75   76 1   
    77   75   79 1   
    78   75   80 1   
    79   76   77 2   
    80   76   81 1   
    81   81   82 1   
    82   81   93 1   
    83   82   83 1   
    84   82   85 1   
    85   82   94 1   
    86   83   84 2   
    87   83  102 1   
    88   85   86 1   
    89   85   95 1   
    90   85   96 1   
    91   86   87 ar  
    92   86   88 ar  
    93   87   89 ar  
    94   87   97 1   
    95   88   90 ar  
    96   88   98 1   
    97   89   91 ar  
    98   89   99 1   
    99   90   91 ar  
   100   90  100 1   
   101   91   92 1   
   102   92  101 1   
   103  102  103 1   
   104  102  110 1   
   105  103  104 1   
   106  103  106 1   
   107  103  111 1   
   108  104  105 2   
   109  104  121 1   
   110  106  107 1   
   111  106  108 1   
   112  106  112 1   
   113  107  109 1   
   114  107  113 1   
   115  107  114 1   
   116  108  115 1   
   117  108  116 1   
   118  108  117 1   
   119  109  118 1   
   120  109  119 1   
   121  109  120 1   
   122  121  122 1   
   123  121  127 1   
   124  122  123 1   
   125  122  125 1   
   126  122  128 1   
   127  123  124 2   
   128  123  132 1   
   129  125  126 1   
   130  125  129 1   
   131  125  130 1   
   132  126  131 1   
   133  132  133 1   
   134  132  137 1   
   135  133  134 1   
   136  133  136 1   
   137  133  138 1   
   138  134  135 2   
   139  134  142 1   
   140  136  139 1   
   141  136  140 1   
   142  136  141 1   
   143  142  143 1   
   144  142  147 1   
   145  143  144 1   
   146  143  146 1   
   147  143  148 1   
   148  144  145 2   
   149  144  152 1   
   150  146  149 1   
   151  146  150 1   
   152  146  151 1   
   153  152  153 1   
   154  152  161 1   
   155  153  154 1   
   156  153  156 1   
   157  153  162 1   
   158  154  155 2   
   159  154  167 1   
   160  156  157 1   
   161  156  163 1   
   162  156  164 1   
   163  157  158 1   
   164  157  165 1   
   165  157  166 1   
   166  158  159 1   
   167  158  160 1   
   168  167  168 1   
   169  167  172 1   
   170  168  169 1   
   171  168  170 1   
   172  168  171 1   
   173  174  175 1   
   174  174  176 1   
   175  177  178 1   
   176  177  179 1   
   177  180  181 1   
   178  180  182 1   
@<TRIPOS>SUBSTRUCTURE
     1 MOL         1 TEMP              0 ****  ****    0 ROOT
