@<TRIPOS>MOLECULE
MOL
  186   183     1     0     0
SMALL
resp


@<TRIPOS>ATOM
      1 C1         -0.2310    0.6860    6.1610 c3        1 MOL     -0.256881
      2 C2         -0.6510    1.0210    4.7530 c         1 MOL      0.727260
      3 O1         -0.0020    1.7210    4.0100 o         1 MOL     -0.628573
      4 H1          0.2700    1.5470    6.6040 hc        1 MOL      0.062918
      5 H2         -1.1100    0.4340    6.7530 hc        1 MOL      0.062918
      6 H3          0.4530   -0.1620    6.1450 hc        1 MOL      0.062918
      7 N1         -1.7450    0.4000    4.3030 n         1 MOL     -0.508782
      8 C3         -2.3280    0.7490    2.9880 c3        1 MOL     -0.060050
      9 C4         -2.8550    2.1700    2.8960 c         1 MOL      0.550878
     10 O2         -3.8330    2.6570    3.4920 o         1 MOL     -0.554103
     11 C5         -3.4750   -0.3420    2.7930 c3        1 MOL     -0.477787
     12 C6         -4.1990   -0.0060    1.4140 c         1 MOL      0.707968
     13 O3         -3.6010    0.6190    0.5140 o         1 MOL     -0.610775
     14 O4         -5.3650   -0.3220    1.2860 o         1 MOL     -0.610775
     15 H4         -2.2640   -0.1730    4.9440 hn        1 MOL      0.318161
     16 H5         -1.4760    0.5910    2.3230 h1        1 MOL      0.141339
     17 H6         -4.1290   -0.4190    3.6660 hc        1 MOL      0.148126
     18 H7         -3.1360   -1.3730    2.7090 hc        1 MOL      0.148126
     19 N2         -2.0810    2.9590    2.1520 n         1 MOL     -0.183886
     20 C7         -2.3290    4.3630    1.9780 c3        1 MOL     -0.160059
     21 C8         -3.5290    4.5890    1.0580 c         1 MOL      0.505720
     22 O5         -4.0280    5.7150    1.1040 o         1 MOL     -0.523320
     23 C9         -1.0790    5.1070    1.5240 c3        1 MOL     -0.173510
     24 C10        -0.7070    4.9960   -0.0100 c3        1 MOL     -0.017141
     25 C11         0.4770    5.7700   -0.4990 c3        1 MOL     -0.071751
     26 C12         1.1250    5.4940   -1.9330 c3        1 MOL     -0.033175
     27 N3          0.1400    5.6800   -2.9360 n4        1 MOL     -0.254778
     28 H8         -1.4040    2.4090    1.6350 hn        1 MOL      0.271701
     29 H9         -2.5710    4.7970    2.9490 h1        1 MOL      0.154020
     30 H10        -0.2360    4.8520    2.1680 hc        1 MOL      0.082362
     31 H11        -1.2440    6.1770    1.6750 hc        1 MOL      0.082362
     32 H12        -1.5880    5.2620   -0.5950 hc        1 MOL      0.068414
     33 H13        -0.6020    3.9240   -0.1930 hc        1 MOL      0.068414
     34 H14         1.2430    5.6720    0.2670 hc        1 MOL      0.045102
     35 H15         0.1960    6.8180   -0.5200 hc        1 MOL      0.045102
     36 H16         1.4590    4.4650   -2.0090 hx        1 MOL      0.052217
     37 H17         1.9380    6.1990   -2.1330 hx        1 MOL      0.052217
     38 H18         0.4430    5.3920   -3.8580 hn        1 MOL      0.305709
     39 H19        -0.6220    5.0480   -2.7220 hn        1 MOL      0.305709
     40 H20        -0.2820    6.6010   -2.9290 hn        1 MOL      0.305709
     41 N4         -4.0550    3.5490    0.3270 n         1 MOL     -0.131063
     42 C13        -4.9010    3.8550   -0.8350 c3        1 MOL     -0.240172
     43 C14        -6.3250    3.3880   -0.6890 c         1 MOL      0.531121
     44 O6         -7.3150    4.0130   -1.1440 o         1 MOL     -0.561867
     45 C15        -4.2680    3.1380   -2.0460 c3        1 MOL      0.127523
     46 C16        -2.7590    3.4220   -2.2980 c         1 MOL      0.828783
     47 O7         -2.4380    4.4520   -2.8580 o         1 MOL     -0.792788
     48 O8         -1.9610    2.5220   -1.9320 o         1 MOL     -0.792788
     49 H21        -3.5650    2.6650    0.3460 hn        1 MOL     -0.066980
     50 H22        -4.8990    4.9410   -0.9670 h1        1 MOL      0.121055
     51 H23        -4.7130    3.4830   -2.9790 hc        1 MOL     -0.029290
     52 H24        -4.3680    2.0480   -2.0670 hc        1 MOL     -0.029290
     53 N5         -6.5550    2.3040    0.0120 n         1 MOL     -0.180151
     54 C17        -7.7930    1.6150    0.1300 c3        1 MOL     -0.317085
     55 C18        -7.9140    0.5100   -0.9090 c         1 MOL      0.586531
     56 O9         -8.9980    0.0110   -1.1840 o         1 MOL     -0.571931
     57 H25        -5.7370    1.8260    0.3630 hn        1 MOL      0.238166
     58 H26        -8.5980    2.3380    0.0180 h1        1 MOL      0.150454
     59 H27        -7.7850    1.1100    1.0980 h1        1 MOL      0.150454
     60 N6         -6.7880    0.0470   -1.4660 n         1 MOL     -0.275433
     61 C19        -6.7890   -1.0590   -2.4120 c3        1 MOL     -0.000394
     62 C20        -6.8280   -2.4430   -1.6280 c         1 MOL      0.386704
     63 O10        -7.2220   -3.4380   -2.1950 o         1 MOL     -0.531653
     64 C21        -5.7480   -0.8670   -3.4860 c3        1 MOL     -0.316761
     65 C22        -4.3840   -0.7480   -2.9280 c         1 MOL      0.836312
     66 O11        -3.7330    0.1610   -3.4670 o         1 MOL     -0.722150
     67 O12        -3.8790   -1.4720   -2.0110 o         1 MOL     -0.722150
     68 H28        -5.9610    0.3410   -0.9480 hn        1 MOL      0.137933
     69 H29        -7.7100   -0.9660   -2.9800 h1        1 MOL      0.116477
     70 H30        -6.0440   -0.0440   -4.1330 hc        1 MOL      0.105442
     71 H31        -5.7170   -1.7740   -4.0990 hc        1 MOL      0.105442
     72 N7         -6.4970   -2.4960   -0.3490 n         1 MOL     -0.101655
     73 C23        -6.5500   -3.7960    0.3820 c3        1 MOL     -0.233794
     74 C24        -5.3060   -4.5430    0.3160 c         1 MOL      0.573002
     75 O13        -5.4020   -5.7190    0.5120 o         1 MOL     -0.580218
     76 H32        -6.3400   -1.6310    0.1340 hn        1 MOL      0.185955
     77 H33        -7.3770   -4.3710   -0.0370 h1        1 MOL      0.118247
     78 H34        -6.7850   -3.5650    1.4160 h1        1 MOL      0.118247
     79 N8         -4.2150   -4.0100   -0.1210 n         1 MOL     -0.195172
     80 C25        -2.8330   -4.5740   -0.3020 c3        1 MOL     -0.240937
     81 C26        -1.7340   -3.6040    0.0810 c         1 MOL      0.671058
     82 O14        -1.9180   -2.4100   -0.1520 o         1 MOL     -0.682131
     83 C27        -2.5950   -5.0550   -1.7690 c3        1 MOL      0.607830
     84 C28        -3.3830   -6.2720   -2.0890 c3        1 MOL     -0.514489
     85 O15        -2.7180   -4.0280   -2.6950 oh        1 MOL     -0.642187
     86 H35        -4.2700   -3.0590   -0.4450 hn        1 MOL      0.148010
     87 H36        -2.7120   -5.4130    0.3730 h1        1 MOL      0.095652
     88 H37        -1.5570   -5.3690   -1.8310 h1        1 MOL     -0.076105
     89 H38        -3.0200   -3.2080   -2.2990 ho        1 MOL      0.366659
     90 H39        -3.3110   -6.5940   -3.1240 hc        1 MOL      0.132027
     91 H40        -3.1900   -6.9860   -1.2850 hc        1 MOL      0.132027
     92 H41        -4.4460   -6.0420   -1.9510 hc        1 MOL      0.132027
     93 N9         -0.5710   -4.0580    0.5430 n         1 MOL     -0.577261
     94 C29         0.5470   -3.2570    1.1190 c3        1 MOL      0.010910
     95 C30         1.8240   -3.4810    0.3320 c         1 MOL      0.526065
     96 O16         2.3450   -4.6200    0.3330 o         1 MOL     -0.527774
     97 C31         0.7400   -3.4630    2.6210 c3        1 MOL      0.169776
     98 C32        -0.5080   -3.3940    3.4970 c3        1 MOL      0.302361
     99 C33         1.8780   -2.6790    3.2570 c3        1 MOL     -0.496162
    100 C34        -0.4910   -4.0800    4.8640 c3        1 MOL     -0.225327
    101 H42        -0.4700   -5.0680    0.5840 hn        1 MOL      0.312568
    102 H43         0.2660   -2.2150    1.0080 h1        1 MOL      0.110156
    103 H44         1.0170   -4.5140    2.6790 hc        1 MOL     -0.011107
    104 H45        -1.3450   -3.8800    2.9880 hc        1 MOL     -0.077364
    105 H46        -0.8890   -2.3830    3.6090 hc        1 MOL     -0.077364
    106 H47         1.9690   -2.7090    4.3440 hc        1 MOL      0.105221
    107 H48         2.7720   -3.2010    2.9090 hc        1 MOL      0.105221
    108 H49         1.9030   -1.6450    2.9260 hc        1 MOL      0.105221
    109 H50         0.4240   -3.8110    5.3920 hc        1 MOL      0.044249
    110 H51        -1.2410   -3.6160    5.4990 hc        1 MOL      0.044249
    111 H52        -0.5980   -5.1640    4.7960 hc        1 MOL      0.044249
    112 N10         2.2190   -2.4560   -0.4580 n         1 MOL     -0.404383
    113 C35         3.5850   -2.4670   -1.1600 c3        1 MOL     -0.026512
    114 C36         4.7750   -2.3930   -0.2210 c         1 MOL      0.443410
    115 O17         4.6910   -1.9470    0.9050 o         1 MOL     -0.363643
    116 C37         3.7360   -1.4890   -2.3170 c3        1 MOL      0.272868
    117 C38         2.7400   -1.6020   -3.4460 c3        1 MOL     -0.376022
    118 O18         3.5250   -0.2660   -1.7050 oh        1 MOL     -0.595840
    119 H53         1.5790   -1.6730   -0.4390 hn        1 MOL      0.383581
    120 H54         3.7740   -3.4640   -1.5670 h1        1 MOL      0.052675
    121 H55         4.7390   -1.5360   -2.7610 h1        1 MOL      0.054067
    122 H56         2.5850   -0.1440   -1.5920 ho        1 MOL      0.326848
    123 H57         2.7730   -0.7930   -4.1760 hc        1 MOL      0.104670
    124 H58         3.1970   -2.3590   -4.0850 hc        1 MOL      0.104670
    125 H59         1.7380   -1.9140   -3.1760 hc        1 MOL      0.104670
    126 N11         5.9750   -2.6050   -0.7840 n         1 MOL     -0.389807
    127 C39         7.2590   -2.3040   -0.1020 c3        1 MOL     -0.005892
    128 C40         7.3630   -0.8450    0.3670 c         1 MOL      0.145534
    129 O19         7.8350   -0.6130    1.4980 o         1 MOL     -0.446139
    130 C41         8.4960   -2.5210   -1.1180 c3        1 MOL      0.274388
    131 C42         8.7560   -3.9220   -1.4080 c3        1 MOL     -0.572623
    132 O20         8.3730   -1.8440   -2.3000 oh        1 MOL     -0.609615
    133 H60         6.1160   -3.0130   -1.6970 hn        1 MOL      0.270828
    134 H61         7.4040   -2.9660    0.7520 h1        1 MOL      0.143673
    135 H62         9.3410   -2.1330   -0.5540 h1        1 MOL      0.042192
    136 H63         9.2810   -1.6210   -2.5070 ho        1 MOL      0.409298
    137 H64         9.7960   -3.9760   -1.7430 hc        1 MOL      0.164372
    138 H65         8.6350   -4.4260   -0.4470 hc        1 MOL      0.164372
    139 H66         8.1580   -4.3510   -2.2120 hc        1 MOL      0.164372
    140 N12         6.9600    0.1650   -0.4540 n         1 MOL      0.053172
    141 C43         6.9190    1.6440   -0.1540 c3        1 MOL     -0.167988
    142 C44         6.0230    2.0160    0.9900 c         1 MOL      0.379658
    143 O21         6.4250    2.8290    1.8360 o         1 MOL     -0.492513
    144 C45         6.7110    2.4880   -1.3560 c3        1 MOL     -0.265306
    145 C46         7.4710    2.1110   -2.6560 c3        1 MOL      0.050790
    146 C47         8.9960    2.0810   -2.6540 c3        1 MOL      0.232834
    147 C48         9.7700    1.6730   -3.8920 c3        1 MOL     -0.031679
    148 N13        11.1930    1.8250   -3.6530 n4        1 MOL     -0.342142
    149 H67         6.7080   -0.1060   -1.3880 hn        1 MOL      0.171436
    150 H68         7.9330    1.8440    0.2260 h1        1 MOL      0.086368
    151 H69         6.8920    3.5520   -1.1600 hc        1 MOL      0.123481
    152 H70         5.6350    2.5740   -1.5310 hc        1 MOL      0.123481
    153 H71         7.2240    2.8310   -3.4390 hc        1 MOL     -0.011043
    154 H72         7.1750    1.1500   -3.0810 hc        1 MOL     -0.011043
    155 H73         9.3220    1.3430   -1.9220 hc        1 MOL     -0.043086
    156 H74         9.2790    3.0850   -2.3320 hc        1 MOL     -0.043086
    157 H75         9.4760    2.3890   -4.6570 hx        1 MOL      0.085640
    158 H76         9.4970    0.6650   -4.2050 hx        1 MOL      0.085640
    159 H77        11.5140    1.1710   -2.9420 hn        1 MOL      0.316579
    160 H78        11.7550    1.7110   -4.4900 hn        1 MOL      0.316579
    161 H79        11.3990    2.7520   -3.3370 hn        1 MOL      0.316579
    162 N14         4.8580    1.4430    0.9790 n         1 MOL      0.009362
    163 C49         3.9270    1.5800    2.0350 c3        1 MOL     -0.439702
    164 C50         4.4340    0.9720    3.3440 c         1 MOL      0.558010
    165 O22         4.2140    1.6420    4.3520 o         1 MOL     -0.524557
    166 C51         2.5890    1.0000    1.6450 c3        1 MOL      0.388859
    167 C52         1.9040    1.8170    0.5590 c3        1 MOL     -0.374133
    168 C53         0.7260    0.9660    0.0330 c         1 MOL      0.915636
    169 O23         0.8940    0.0230   -0.8150 o         1 MOL     -0.872462
    170 O24        -0.3820    1.2190    0.4950 o         1 MOL     -0.872462
    171 H80         4.6370    0.8670    0.1880 hn        1 MOL      0.115622
    172 H81         3.7350    2.6480    2.1400 h1        1 MOL      0.169246
    173 H82         1.9570    1.0370    2.5340 hc        1 MOL     -0.007103
    174 H83         2.7200   -0.0570    1.3720 hc        1 MOL     -0.007103
    175 H84         2.5550    1.9720   -0.3050 hc        1 MOL      0.079859
    176 H85         1.5920    2.8040    0.9140 hc        1 MOL      0.079859
    177 N15         5.1420   -0.1860    3.3120 n         1 MOL     -0.110299
    178 C54         5.7070   -0.7710    4.4870 c3        1 MOL     -0.402716
    179 H86         6.2110    0.0000    5.0700 h1        1 MOL      0.137432
    180 H87         4.9140   -1.2200    5.0870 h1        1 MOL      0.137432
    181 H88         6.4250   -1.5390    4.2010 h1        1 MOL      0.137432
    182 H89         5.2200   -0.7320    2.4660 hn        1 MOL      0.180931
    183 Ca1        -1.8930    0.0730   -1.3200 Ca        1 MOL      1.779217
    184 O25        -0.4700   -0.6230   -3.4900 oh        1 MOL     -0.932198
    185 H90        -0.5950   -0.4650   -4.4270 ho        1 MOL      0.445529
    186 H91         0.4790   -0.6120   -3.3680 ho        1 MOL      0.445529
@<TRIPOS>BOND
     1    1    2 1   
     2    1    4 1   
     3    1    5 1   
     4    1    6 1   
     5    2    3 2   
     6    2    7 1   
     7    7    8 1   
     8    7   15 1   
     9    8    9 1   
    10    8   11 1   
    11    8   16 1   
    12    9   10 2   
    13    9   19 1   
    14   11   12 1   
    15   11   17 1   
    16   11   18 1   
    17   12   13 1   
    18   12   14 1   
    19   19   20 1   
    20   19   28 1   
    21   20   21 1   
    22   20   23 1   
    23   20   29 1   
    24   21   22 2   
    25   21   41 1   
    26   23   24 1   
    27   23   30 1   
    28   23   31 1   
    29   24   25 1   
    30   24   32 1   
    31   24   33 1   
    32   25   26 1   
    33   25   34 1   
    34   25   35 1   
    35   26   27 1   
    36   26   36 1   
    37   26   37 1   
    38   27   38 1   
    39   27   39 1   
    40   27   40 1   
    41   41   42 1   
    42   41   49 1   
    43   42   43 1   
    44   42   45 1   
    45   42   50 1   
    46   43   44 2   
    47   43   53 1   
    48   45   46 1   
    49   45   51 1   
    50   45   52 1   
    51   46   47 1   
    52   46   48 1   
    53   53   54 1   
    54   53   57 1   
    55   54   55 1   
    56   54   58 1   
    57   54   59 1   
    58   55   56 2   
    59   55   60 1   
    60   60   61 1   
    61   60   68 1   
    62   61   62 1   
    63   61   64 1   
    64   61   69 1   
    65   62   63 2   
    66   62   72 1   
    67   64   65 1   
    68   64   70 1   
    69   64   71 1   
    70   65   66 1   
    71   65   67 1   
    72   72   73 1   
    73   72   76 1   
    74   73   74 1   
    75   73   77 1   
    76   73   78 1   
    77   74   75 2   
    78   74   79 1   
    79   79   80 1   
    80   79   86 1   
    81   80   81 1   
    82   80   83 1   
    83   80   87 1   
    84   81   82 2   
    85   81   93 1   
    86   83   84 1   
    87   83   85 1   
    88   83   88 1   
    89   84   90 1   
    90   84   91 1   
    91   84   92 1   
    92   85   89 1   
    93   93   94 1   
    94   93  101 1   
    95   94   95 1   
    96   94   97 1   
    97   94  102 1   
    98   95   96 2   
    99   95  112 1   
   100   97   98 1   
   101   97   99 1   
   102   97  103 1   
   103   98  100 1   
   104   98  104 1   
   105   98  105 1   
   106   99  106 1   
   107   99  107 1   
   108   99  108 1   
   109  100  109 1   
   110  100  110 1   
   111  100  111 1   
   112  112  113 1   
   113  112  119 1   
   114  113  114 1   
   115  113  116 1   
   116  113  120 1   
   117  114  115 2   
   118  114  126 1   
   119  116  117 1   
   120  116  118 1   
   121  116  121 1   
   122  117  123 1   
   123  117  124 1   
   124  117  125 1   
   125  118  122 1   
   126  126  127 1   
   127  126  133 1   
   128  127  128 1   
   129  127  130 1   
   130  127  134 1   
   131  128  129 2   
   132  128  140 1   
   133  130  131 1   
   134  130  132 1   
   135  130  135 1   
   136  131  137 1   
   137  131  138 1   
   138  131  139 1   
   139  132  136 1   
   140  140  141 1   
   141  140  149 1   
   142  141  142 1   
   143  141  144 1   
   144  141  150 1   
   145  142  143 2   
   146  142  162 1   
   147  144  145 1   
   148  144  151 1   
   149  144  152 1   
   150  145  146 1   
   151  145  153 1   
   152  145  154 1   
   153  146  147 1   
   154  146  155 1   
   155  146  156 1   
   156  147  148 1   
   157  147  157 1   
   158  147  158 1   
   159  148  159 1   
   160  148  160 1   
   161  148  161 1   
   162  162  163 1   
   163  162  171 1   
   164  163  164 1   
   165  163  166 1   
   166  163  172 1   
   167  164  165 2   
   168  164  177 1   
   169  166  167 1   
   170  166  173 1   
   171  166  174 1   
   172  167  168 1   
   173  167  175 1   
   174  167  176 1   
   175  168  169 1   
   176  168  170 1   
   177  177  178 1   
   178  177  182 1   
   179  178  179 1   
   180  178  180 1   
   181  178  181 1   
   182  184  185 1   
   183  184  186 1   
@<TRIPOS>SUBSTRUCTURE
     1 MOL         1 TEMP              0 ****  ****    0 ROOT
