@<TRIPOS>MOLECULE
MOL
  179   176     1     0     0
SMALL
resp


@<TRIPOS>ATOM
      1 C1         -1.3010   -2.5220    6.3660 c3        1 MOL     -0.361624
      2 C2         -0.9160   -2.4110    4.9180 c         1 MOL      0.787797
      3 O1         -1.7040   -2.6980    4.0450 o         1 MOL     -0.614302
      4 H1         -2.3720   -2.7070    6.4430 hc        1 MOL      0.094258
      5 H2         -0.7560   -3.3480    6.8250 hc        1 MOL      0.094258
      6 H3         -1.0550   -1.5940    6.8800 hc        1 MOL      0.094258
      7 N1          0.3510   -2.0980    4.5180 n         1 MOL     -0.662433
      8 C3          0.8610   -2.1610    3.1570 c3        1 MOL     -0.043476
      9 C4          0.8610   -3.5970    2.6270 c         1 MOL      0.709063
     10 O2          1.5380   -4.4410    3.1880 o         1 MOL     -0.565289
     11 C5          2.2820   -1.4760    3.0390 c3        1 MOL      0.033201
     12 C6          2.7400   -1.2260    1.5930 c         1 MOL      0.502593
     13 O3          3.7390   -0.5220    1.5620 o         1 MOL     -0.693517
     14 O4          2.1390   -1.6260    0.5680 o         1 MOL     -0.693517
     15 H4          1.0090   -1.8000    5.2150 hn        1 MOL      0.315204
     16 H5          0.1170   -1.5830    2.6180 h1        1 MOL      0.027201
     17 H6          3.1060   -1.9760    3.5630 hc        1 MOL      0.034727
     18 H7          2.2030   -0.5140    3.5390 hc        1 MOL      0.034727
     19 N2          0.0600   -3.7500    1.5530 n         1 MOL     -0.320824
     20 C7         -0.0970   -4.9530    0.6950 c3        1 MOL     -0.192795
     21 C8          1.1590   -5.4930    0.1320 c         1 MOL      0.583026
     22 O5          1.3040   -6.6660    0.0120 o         1 MOL     -0.586468
     23 C9         -1.1040   -4.4660   -0.3490 c3        1 MOL     -0.110360
     24 C10        -1.3690   -5.4000   -1.5610 c3        1 MOL     -0.005095
     25 C11        -2.6000   -5.0790   -2.3930 c3        1 MOL     -0.223339
     26 C12        -3.9980   -5.4530   -1.8650 c3        1 MOL     -0.010102
     27 N3         -4.2520   -6.9100   -1.9010 n4        1 MOL     -0.439181
     28 H8         -0.5150   -2.9670    1.2770 hn        1 MOL      0.242334
     29 H9         -0.5010   -5.7080    1.3610 h1        1 MOL      0.109308
     30 H10        -0.7660   -3.5540   -0.8440 hc        1 MOL      0.127275
     31 H11        -2.0800   -4.1820    0.0570 hc        1 MOL      0.127275
     32 H12        -1.4630   -6.4120   -1.1830 hc        1 MOL      0.037202
     33 H13        -0.4750   -5.3180   -2.1720 hc        1 MOL      0.037202
     34 H14        -2.4570   -5.5020   -3.3900 hc        1 MOL      0.102467
     35 H15        -2.5740   -4.0120   -2.6080 hc        1 MOL      0.102467
     36 H16        -4.7680   -4.9190   -2.4230 hx        1 MOL      0.129065
     37 H17        -4.1560   -5.0700   -0.8520 hx        1 MOL      0.129065
     38 H18        -3.5350   -7.3950   -1.3900 hn        1 MOL      0.350029
     39 H19        -5.1910   -7.0780   -1.5720 hn        1 MOL      0.350029
     40 H20        -4.2250   -7.2970   -2.8280 hn        1 MOL      0.350029
     41 N4          2.1000   -4.6410   -0.2170 n         1 MOL     -0.276562
     42 C13         3.3770   -5.0410   -0.9390 c3        1 MOL      0.030561
     43 C14         4.6540   -4.4280   -0.3640 c         1 MOL      0.284918
     44 O6          5.7910   -4.6770   -0.8320 o         1 MOL     -0.498653
     45 C15         3.2480   -4.8150   -2.4730 c3        1 MOL     -0.038321
     46 C16         2.7220   -3.4720   -2.9190 c         1 MOL      0.782710
     47 O7          2.1810   -2.6940   -2.1440 o         1 MOL     -0.724198
     48 O8          2.8080   -3.2190   -4.0900 o         1 MOL     -0.724198
     49 H21         1.8940   -3.6620   -0.3220 hn        1 MOL      0.098990
     50 H22         3.5190   -6.1170   -0.8440 h1        1 MOL      0.119726
     51 H23         2.7080   -5.6780   -2.8470 hc        1 MOL      0.007733
     52 H24         4.2700   -4.9410   -2.8230 hc        1 MOL      0.007733
     53 N5          4.5860   -3.6840    0.7330 n         1 MOL      0.015102
     54 C17         5.7530   -3.1810    1.4570 c3        1 MOL     -0.291378
     55 C18         6.5150   -2.1770    0.5840 c         1 MOL      0.547685
     56 O9          7.6710   -1.8250    0.7550 o         1 MOL     -0.571533
     57 H25         3.6830   -3.6300    1.1870 hn        1 MOL      0.102228
     58 H26         6.4380   -3.9590    1.8120 h1        1 MOL      0.136269
     59 H27         5.3620   -2.6210    2.3040 h1        1 MOL      0.136269
     60 N6          5.8610   -1.5310   -0.3810 n         1 MOL     -0.192776
     61 C19         6.3960   -0.4070   -1.1640 c3        1 MOL     -0.230190
     62 C20         6.5340    0.9410   -0.3560 c         1 MOL      0.506843
     63 O10         7.1230    1.8380   -0.8470 o         1 MOL     -0.514527
     64 C21         5.6240   -0.2620   -2.5040 c3        1 MOL     -0.000042
     65 C22         4.5770    0.8300   -2.5380 c         1 MOL      0.500074
     66 N7          4.7570    1.7870   -3.4170 n         1 MOL     -0.633409
     67 O11         3.6010    0.7760   -1.8530 o         1 MOL     -0.690047
     68 H28         4.8720   -1.6270   -0.2020 hn        1 MOL      0.176210
     69 H29         7.4000   -0.6530   -1.5090 h1        1 MOL      0.171577
     70 H30         5.1100   -1.2190   -2.6140 hc        1 MOL      0.055574
     71 H31         6.2080   -0.3080   -3.4230 hc        1 MOL      0.055574
     72 H32         5.4470    1.7870   -4.1570 hn        1 MOL      0.335922
     73 H33         4.0260    2.4790   -3.4530 hn        1 MOL      0.335922
     74 N8          6.1010    0.9280    0.9030 n         1 MOL     -0.277824
     75 C23         6.1620    2.2210    1.7010 c3        1 MOL     -0.235995
     76 C24         4.8250    3.0380    1.8020 c         1 MOL      0.581844
     77 O12         4.8700    4.1330    2.4140 o         1 MOL     -0.555256
     78 H34         5.5090    0.1530    1.1760 hn        1 MOL      0.267246
     79 H35         6.9460    2.8070    1.2080 h1        1 MOL      0.142219
     80 H36         6.5200    2.0460    2.7190 h1        1 MOL      0.142219
     81 N9          3.7690    2.6720    1.1130 n         1 MOL     -0.611669
     82 C25         2.5510    3.4450    0.8850 c3        1 MOL      0.276501
     83 C26         1.3040    2.6050    0.8820 c         1 MOL      0.500612
     84 O13         1.3110    1.4900    0.4070 o         1 MOL     -0.543683
     85 C27         2.6740    4.1980   -0.4510 c3        1 MOL      0.073980
     86 C28         3.9810    5.0620   -0.6350 ca        1 MOL      0.049093
     87 C29         5.0700    4.5420   -1.3920 ca        1 MOL     -0.253658
     88 C30         4.0150    6.3580   -0.0420 ca        1 MOL     -0.253658
     89 C31         6.1660    5.4590   -1.5480 ca        1 MOL     -0.094974
     90 C32         5.1510    7.1520   -0.1970 ca        1 MOL     -0.094974
     91 C33         6.1720    6.7330   -0.9780 ca        1 MOL      0.176078
     92 O14         7.3200    7.4710   -1.0420 oh        1 MOL     -0.469286
     93 H37         3.8690    1.8390    0.5450 hn        1 MOL      0.524230
     94 H38         2.3850    4.1700    1.6770 h1        1 MOL      0.020163
     95 H39         1.9050    4.9350   -0.6780 hc        1 MOL     -0.033254
     96 H40         2.5130    3.4750   -1.2580 hc        1 MOL     -0.033254
     97 H41         5.0460    3.6470   -1.9830 ha        1 MOL      0.143207
     98 H42         3.1900    6.6290    0.5960 ha        1 MOL      0.143207
     99 H43         6.9330    5.2960   -2.2800 ha        1 MOL      0.116383
    100 H44         5.2760    8.0190    0.4400 ha        1 MOL      0.116383
    101 H45         7.1950    8.3180   -0.6130 ho        1 MOL      0.360914
    102 N10         0.2350    3.1770    1.3660 n         1 MOL     -0.570329
    103 C34        -1.1270    2.5880    1.2160 c3        1 MOL      0.023900
    104 C35        -2.1780    3.5150    0.8060 c         1 MOL      0.535091
    105 O15        -2.3620    4.6620    1.2470 o         1 MOL     -0.523094
    106 C36        -1.5600    2.0770    2.6430 c3        1 MOL     -0.018877
    107 C37        -1.5330    3.0680    3.8210 c3        1 MOL     -0.023009
    108 C38        -0.8680    0.8140    2.9110 c3        1 MOL     -0.109694
    109 C39        -1.4900    2.4420    5.2510 c3        1 MOL     -0.236421
    110 H46         0.2920    4.0710    1.8400 hn        1 MOL      0.310082
    111 H47        -1.0800    1.7030    0.5790 h1        1 MOL      0.104061
    112 H48        -2.6000    1.7340    2.5940 hc        1 MOL      0.028515
    113 H49        -2.2580    3.8650    3.6150 hc        1 MOL      0.046534
    114 H50        -0.6660    3.7270    3.7990 hc        1 MOL      0.046534
    115 H51         0.1700    0.9440    3.2430 hc        1 MOL      0.071057
    116 H52        -1.2370    0.3880    3.8380 hc        1 MOL      0.071057
    117 H53        -1.1230    0.1210    2.1150 hc        1 MOL      0.071057
    118 H54        -0.6140    1.8350    5.4830 hc        1 MOL      0.062328
    119 H55        -1.4180    3.2570    5.9770 hc        1 MOL      0.062328
    120 H56        -2.4110    1.9090    5.4960 hc        1 MOL      0.062328
    121 N11        -2.9600    2.9800   -0.1550 n         1 MOL     -0.344007
    122 C40        -4.0580    3.7520   -0.7930 c3        1 MOL      0.059038
    123 C41        -5.4670    3.3750   -0.2210 c         1 MOL      0.517763
    124 O16        -5.5830    2.4020    0.5150 o         1 MOL     -0.448873
    125 C42        -3.9360    3.5110   -2.2620 c3        1 MOL     -0.155163
    126 O17        -4.2350    2.1870   -2.4480 oh        1 MOL     -0.480381
    127 H57        -3.0160    1.9980   -0.3630 hn        1 MOL      0.197162
    128 H58        -3.8620    4.8030   -0.5620 h1        1 MOL      0.067738
    129 H59        -2.8960    3.6340   -2.5690 h1        1 MOL      0.100611
    130 H60        -4.6620    4.0890   -2.8380 h1        1 MOL      0.100611
    131 H61        -3.4680    1.8330   -2.9090 ho        1 MOL      0.425974
    132 N12        -6.4750    4.1580   -0.7050 n         1 MOL     -0.490246
    133 C43        -7.8370    3.8040   -0.3050 c3        1 MOL      0.159545
    134 C44        -8.2660    2.3870   -0.7400 c         1 MOL      0.433649
    135 O18        -8.8250    1.5960    0.0590 o         1 MOL     -0.506874
    136 C45        -8.7720    4.8270   -0.9220 c3        1 MOL     -0.308977
    137 H62        -6.3560    5.0070   -1.2230 hn        1 MOL      0.309669
    138 H63        -7.9860    3.8150    0.7740 h1        1 MOL      0.090422
    139 H64        -9.7580    4.5760   -0.5240 hc        1 MOL      0.093448
    140 H65        -8.5710    5.8080   -0.4880 hc        1 MOL      0.093448
    141 H66        -8.8190    4.7870   -2.0070 hc        1 MOL      0.093448
    142 N13        -7.8180    1.8980   -1.8950 n         1 MOL     -0.368323
    143 C46        -8.0030    0.4550   -2.2280 c3        1 MOL      0.028998
    144 C47        -7.2490   -0.5980   -1.3160 c         1 MOL      0.424769
    145 O19        -7.8440   -1.5700   -0.8790 o         1 MOL     -0.514974
    146 C48        -7.6920    0.1980   -3.7330 c3        1 MOL     -0.254774
    147 H67        -7.3030    2.4710   -2.5370 hn        1 MOL      0.298889
    148 H68        -9.0600    0.2990   -2.0250 h1        1 MOL      0.115202
    149 H69        -6.6560    0.3900   -4.0080 hc        1 MOL      0.075140
    150 H70        -7.8990   -0.8570   -3.9210 hc        1 MOL      0.075140
    151 H71        -8.2910    0.8310   -4.3880 hc        1 MOL      0.075140
    152 N14        -5.9880   -0.3600   -0.9320 n         1 MOL     -0.080413
    153 C49        -5.4080   -1.2430    0.0740 c3        1 MOL     -0.146910
    154 C50        -5.9740   -1.0930    1.4870 c         1 MOL      0.503854
    155 O20        -5.8520   -2.0360    2.2260 o         1 MOL     -0.560977
    156 C51        -3.8170   -1.0260    0.0820 c3        1 MOL      0.063867
    157 C52        -3.2350   -1.1830   -1.3040 c3        1 MOL     -0.018787
    158 C53        -1.7500   -0.9840   -1.4490 c         1 MOL      0.737455
    159 O21        -0.9630   -0.9130   -0.5000 o         1 MOL     -0.772772
    160 O22        -1.2250   -1.0360   -2.6010 o         1 MOL     -0.772772
    161 H72        -5.5600    0.5310   -1.1130 hn        1 MOL      0.070197
    162 H73        -5.5360   -2.2910   -0.2180 h1        1 MOL      0.074660
    163 H74        -3.3960   -1.7580    0.7620 hc        1 MOL     -0.003513
    164 H75        -3.6120   -0.0110    0.4140 hc        1 MOL     -0.003513
    165 H76        -3.7750   -0.4380   -1.8890 hc        1 MOL     -0.048573
    166 H77        -3.6330   -2.1140   -1.7110 hc        1 MOL     -0.048573
    167 N15        -6.6190   -0.0010    1.7920 n         1 MOL     -0.034620
    168 C54        -7.2520    0.2310    3.0140 c3        1 MOL     -0.303458
    169 H78        -8.0650   -0.4830    3.1420 h1        1 MOL      0.108955
    170 H79        -6.5330    0.1120    3.8240 h1        1 MOL      0.108955
    171 H80        -7.6530    1.2450    3.0290 h1        1 MOL      0.108955
    172 H81        -6.6900    0.6930    1.0550 hn        1 MOL      0.137776
    173 Ca1         1.2300   -0.4220   -1.5150 Ca        1 MOL      1.762499
    174 O23         1.5370   -0.5660   -4.3010 oh        1 MOL     -0.815615
    175 H82         1.4820   -0.0150   -5.0820 ho        1 MOL      0.397991
    176 H83         1.7300   -1.4420   -4.6300 ho        1 MOL      0.397991
    177 O24         0.0730    1.6450   -2.6220 oh        1 MOL     -0.815615
    178 H84        -0.2030    1.5710   -3.5320 ho        1 MOL      0.397991
    179 H85         0.2360    2.5830   -2.4920 ho        1 MOL      0.397991
@<TRIPOS>BOND
     1    1    2 1   
     2    1    4 1   
     3    1    5 1   
     4    1    6 1   
     5    2    3 2   
     6    2    7 1   
     7    7    8 1   
     8    7   15 1   
     9    8    9 1   
    10    8   11 1   
    11    8   16 1   
    12    9   10 2   
    13    9   19 1   
    14   11   12 1   
    15   11   17 1   
    16   11   18 1   
    17   12   13 1   
    18   12   14 1   
    19   19   20 1   
    20   19   28 1   
    21   20   21 1   
    22   20   23 1   
    23   20   29 1   
    24   21   22 2   
    25   21   41 1   
    26   23   24 1   
    27   23   30 1   
    28   23   31 1   
    29   24   25 1   
    30   24   32 1   
    31   24   33 1   
    32   25   26 1   
    33   25   34 1   
    34   25   35 1   
    35   26   27 1   
    36   26   36 1   
    37   26   37 1   
    38   27   38 1   
    39   27   39 1   
    40   27   40 1   
    41   41   42 1   
    42   41   49 1   
    43   42   43 1   
    44   42   45 1   
    45   42   50 1   
    46   43   44 2   
    47   43   53 1   
    48   45   46 1   
    49   45   51 1   
    50   45   52 1   
    51   46   47 1   
    52   46   48 1   
    53   53   54 1   
    54   53   57 1   
    55   54   55 1   
    56   54   58 1   
    57   54   59 1   
    58   55   56 2   
    59   55   60 1   
    60   60   61 1   
    61   60   68 1   
    62   61   62 1   
    63   61   64 1   
    64   61   69 1   
    65   62   63 2   
    66   62   74 1   
    67   64   65 1   
    68   64   70 1   
    69   64   71 1   
    70   65   66 1   
    71   65   67 2   
    72   66   72 1   
    73   66   73 1   
    74   74   75 1   
    75   74   78 1   
    76   75   76 1   
    77   75   79 1   
    78   75   80 1   
    79   76   77 2   
    80   76   81 1   
    81   81   82 1   
    82   81   93 1   
    83   82   83 1   
    84   82   85 1   
    85   82   94 1   
    86   83   84 2   
    87   83  102 1   
    88   85   86 1   
    89   85   95 1   
    90   85   96 1   
    91   86   87 ar  
    92   86   88 ar  
    93   87   89 ar  
    94   87   97 1   
    95   88   90 ar  
    96   88   98 1   
    97   89   91 ar  
    98   89   99 1   
    99   90   91 ar  
   100   90  100 1   
   101   91   92 1   
   102   92  101 1   
   103  102  103 1   
   104  102  110 1   
   105  103  104 1   
   106  103  106 1   
   107  103  111 1   
   108  104  105 2   
   109  104  121 1   
   110  106  107 1   
   111  106  108 1   
   112  106  112 1   
   113  107  109 1   
   114  107  113 1   
   115  107  114 1   
   116  108  115 1   
   117  108  116 1   
   118  108  117 1   
   119  109  118 1   
   120  109  119 1   
   121  109  120 1   
   122  121  122 1   
   123  121  127 1   
   124  122  123 1   
   125  122  125 1   
   126  122  128 1   
   127  123  124 2   
   128  123  132 1   
   129  125  126 1   
   130  125  129 1   
   131  125  130 1   
   132  126  131 1   
   133  132  133 1   
   134  132  137 1   
   135  133  134 1   
   136  133  136 1   
   137  133  138 1   
   138  134  135 2   
   139  134  142 1   
   140  136  139 1   
   141  136  140 1   
   142  136  141 1   
   143  142  143 1   
   144  142  147 1   
   145  143  144 1   
   146  143  146 1   
   147  143  148 1   
   148  144  145 2   
   149  144  152 1   
   150  146  149 1   
   151  146  150 1   
   152  146  151 1   
   153  152  153 1   
   154  152  161 1   
   155  153  154 1   
   156  153  156 1   
   157  153  162 1   
   158  154  155 2   
   159  154  167 1   
   160  156  157 1   
   161  156  163 1   
   162  156  164 1   
   163  157  158 1   
   164  157  165 1   
   165  157  166 1   
   166  158  159 1   
   167  158  160 1   
   168  167  168 1   
   169  167  172 1   
   170  168  169 1   
   171  168  170 1   
   172  168  171 1   
   173  174  175 1   
   174  174  176 1   
   175  177  178 1   
   176  177  179 1   
@<TRIPOS>SUBSTRUCTURE
     1 MOL         1 TEMP              0 ****  ****    0 ROOT
