@<TRIPOS>MOLECULE
MOL
  179   176     1     0     0
SMALL
resp


@<TRIPOS>ATOM
      1 C1          1.9110    4.0360    3.9690 c3        1 MOL     -0.368292
      2 C2          1.1420    3.5000    2.8360 c         1 MOL      0.538244
      3 O1          1.7000    3.2640    1.7160 o         1 MOL     -0.548075
      4 H1          2.7950    4.5520    3.5950 hc        1 MOL      0.105168
      5 H2          1.2930    4.7370    4.5300 hc        1 MOL      0.105168
      6 H3          2.2170    3.2180    4.6210 hc        1 MOL      0.105168
      7 N1         -0.1600    3.2470    3.0410 n         1 MOL     -0.547534
      8 C3         -1.1080    2.6900    2.0300 c3        1 MOL     -0.172234
      9 C4         -1.9720    3.7850    1.4370 c         1 MOL      0.698884
     10 O2         -3.0640    4.1760    1.8910 o         1 MOL     -0.514128
     11 C5         -2.0320    1.6160    2.7270 c3        1 MOL      0.010024
     12 C6         -3.0830    0.9630    1.7260 c         1 MOL      0.649940
     13 O3         -4.2260    0.6690    2.1210 o         1 MOL     -0.673565
     14 O4         -2.7240    0.8040    0.5530 o         1 MOL     -0.673565
     15 H4         -0.4240    3.6160    3.9360 hn        1 MOL      0.359169
     16 H5         -0.4960    2.2090    1.2680 h1        1 MOL      0.077619
     17 H6         -2.5280    2.0310    3.6100 hc        1 MOL      0.013061
     18 H7         -1.3760    0.8260    3.0660 hc        1 MOL      0.013061
     19 N2         -1.4010    4.5150    0.5120 n         1 MOL     -0.520786
     20 C7         -2.0260    5.7160   -0.1190 c3        1 MOL     -0.127037
     21 C8         -3.2730    5.4800   -0.8990 c         1 MOL      0.419229
     22 O5         -4.1490    6.3670   -1.0350 o         1 MOL     -0.514543
     23 C9         -0.9160    6.4360   -0.9870 c3        1 MOL     -0.032693
     24 C10         0.2970    7.0370   -0.2050 c3        1 MOL      0.050682
     25 C11         1.3040    7.7220   -1.1080 c3        1 MOL     -0.052820
     26 C12         2.1830    8.6270   -0.1960 c3        1 MOL     -0.117017
     27 N3          3.1890    7.8670    0.5630 n4        1 MOL     -0.262428
     28 H8         -0.4200    4.3300    0.3730 hn        1 MOL      0.369255
     29 H9         -2.3000    6.3780    0.7150 h1        1 MOL      0.124696
     30 H10        -1.4400    7.2250   -1.5300 hc        1 MOL      0.052791
     31 H11        -0.5660    5.8070   -1.7980 hc        1 MOL      0.052791
     32 H12         0.8360    6.2070    0.2550 hc        1 MOL      0.003867
     33 H13        -0.0650    7.8340    0.4380 hc        1 MOL      0.003867
     34 H14         0.8170    8.3830   -1.8250 hc        1 MOL      0.066041
     35 H15         1.8710    6.9270   -1.5740 hc        1 MOL      0.066041
     36 H16         1.5920    9.0770    0.6050 hx        1 MOL      0.125455
     37 H17         2.8010    9.2530   -0.8410 hx        1 MOL      0.125455
     38 H18         3.9160    8.3950    1.0200 hn        1 MOL      0.311867
     39 H19         2.7430    7.3250    1.3020 hn        1 MOL      0.311867
     40 H20         3.6200    7.2410   -0.0990 hn        1 MOL      0.311867
     41 N4         -3.4600    4.2430   -1.4700 n         1 MOL     -0.166922
     42 C13        -4.4920    3.8500   -2.3670 c3        1 MOL     -0.002888
     43 C14        -5.7560    3.2840   -1.7170 c         1 MOL      0.447277
     44 O6         -6.8340    3.3640   -2.3060 o         1 MOL     -0.514139
     45 C15        -4.0430    2.8310   -3.4070 c3        1 MOL     -0.346625
     46 C16        -3.2980    1.6850   -2.7870 c         1 MOL      0.881766
     47 O7         -3.9080    0.5420   -2.6690 o         1 MOL     -0.805013
     48 O8         -2.1190    1.8350   -2.3730 o         1 MOL     -0.805013
     49 H21        -2.6330    3.6590   -1.4190 hn        1 MOL      0.207507
     50 H22        -4.8290    4.7490   -2.8990 h1        1 MOL      0.089750
     51 H23        -3.4160    3.3560   -4.1330 hc        1 MOL      0.098880
     52 H24        -4.8830    2.3650   -3.9190 hc        1 MOL      0.098880
     53 N5         -5.5750    2.7860   -0.4620 n         1 MOL     -0.190554
     54 C17        -6.6630    2.3240    0.4390 c3        1 MOL     -0.146623
     55 C18        -7.1540    0.8990    0.1650 c         1 MOL      0.460910
     56 O9         -8.3670    0.6320    0.2610 o         1 MOL     -0.579517
     57 H25        -4.6190    2.6990   -0.1550 hn        1 MOL      0.179695
     58 H26        -7.4800    3.0180    0.2360 h1        1 MOL      0.104649
     59 H27        -6.3940    2.4490    1.4970 h1        1 MOL      0.104649
     60 N6         -6.2920   -0.0060   -0.2030 n         1 MOL     -0.020304
     61 C19        -6.6250   -1.4630   -0.3060 c3        1 MOL     -0.094207
     62 C20        -6.2860   -2.2830    0.9700 c         1 MOL      0.464789
     63 O10        -6.5640   -3.4560    0.8950 o         1 MOL     -0.517208
     64 C21        -6.0340   -2.0640   -1.5120 c3        1 MOL     -0.187182
     65 C22        -4.6110   -2.3500   -1.4230 c         1 MOL      0.852820
     66 N7         -4.0950   -3.0050   -2.3340 n         1 MOL     -0.739929
     67 O11        -3.9250   -2.0550   -0.4750 o         1 MOL     -0.669282
     68 H28        -5.3180    0.2600   -0.2270 hn        1 MOL     -0.008737
     69 H29        -7.7110   -1.5790   -0.3450 h1        1 MOL      0.121207
     70 H30        -6.2020   -1.3580   -2.3220 hc        1 MOL      0.075986
     71 H31        -6.6290   -2.9450   -1.7620 hc        1 MOL      0.075986
     72 H32        -4.6780   -3.3620   -3.0790 hn        1 MOL      0.306275
     73 H33        -3.1310   -3.3180   -2.2690 hn        1 MOL      0.306275
     74 N8         -5.7300   -1.6790    2.0220 n         1 MOL     -0.367090
     75 C23        -5.5430   -2.3900    3.2530 c3        1 MOL     -0.123527
     76 C24        -4.0880   -2.9370    3.3440 c         1 MOL      0.476367
     77 O12        -3.6240   -3.2970    4.4560 o         1 MOL     -0.573253
     78 H34        -5.3690   -0.7380    1.9820 hn        1 MOL      0.341605
     79 H35        -6.1900   -3.2630    3.1510 h1        1 MOL      0.110198
     80 H36        -5.7660   -1.7330    4.0910 h1        1 MOL      0.110198
     81 N9         -3.2960   -3.0940    2.2580 n         1 MOL     -0.310166
     82 C25        -1.9620   -3.6810    2.3020 c3        1 MOL      0.160653
     83 C26        -0.8460   -3.0080    1.5360 c         1 MOL      0.478338
     84 O13        -1.0810   -2.2500    0.6000 o         1 MOL     -0.696592
     85 C27        -2.0800   -5.1740    1.9200 c3        1 MOL     -0.323212
     86 C28        -2.2560   -5.4290    0.3940 ca        1 MOL      0.003971
     87 C29        -3.5350   -5.5840   -0.1100 ca        1 MOL      0.014409
     88 C30        -1.1930   -5.6850   -0.4300 ca        1 MOL      0.014409
     89 C31        -3.7340   -5.8770   -1.4850 ca        1 MOL     -0.408971
     90 C32        -1.3780   -6.1270   -1.7850 ca        1 MOL     -0.408971
     91 C33        -2.6590   -6.2190   -2.3350 ca        1 MOL      0.445141
     92 O14        -2.9080   -6.6330   -3.6540 oh        1 MOL     -0.468367
     93 H37        -3.6490   -2.9650    1.3200 hn        1 MOL      0.340437
     94 H38        -1.6790   -3.7420    3.3490 h1        1 MOL      0.071276
     95 H39        -2.9470   -5.6510    2.3700 hc        1 MOL      0.118513
     96 H40        -1.2160   -5.6900    2.3510 hc        1 MOL      0.118513
     97 H41        -4.4130   -5.3860    0.4870 ha        1 MOL      0.093301
     98 H42        -0.1960   -5.4270   -0.1050 ha        1 MOL      0.093301
     99 H43        -4.7720   -5.9130   -1.7800 ha        1 MOL      0.166078
    100 H44        -0.5780   -6.2150   -2.5050 ha        1 MOL      0.166078
    101 H45        -2.1020   -6.6300   -4.1700 ho        1 MOL      0.325341
    102 N10         0.3900   -3.1570    1.9880 n         1 MOL     -0.433289
    103 C34         1.5500   -2.5260    1.5100 c3        1 MOL      0.009906
    104 C35         2.6540   -3.4670    1.0690 c         1 MOL      0.397716
    105 O15         2.9560   -4.4560    1.7590 o         1 MOL     -0.561299
    106 C36         2.1590   -1.4330    2.5270 c3        1 MOL      0.212789
    107 C37         2.7590   -2.0620    3.7650 c3        1 MOL     -0.061864
    108 C38         1.0190   -0.4620    2.8800 c3        1 MOL     -0.146916
    109 C39         3.2530   -0.9840    4.7160 c3        1 MOL     -0.101906
    110 H46         0.5300   -3.9490    2.6030 hn        1 MOL      0.293583
    111 H47         1.2620   -1.9650    0.6190 h1        1 MOL      0.146934
    112 H48         2.9230   -0.7850    2.0910 hc        1 MOL     -0.089118
    113 H49         3.6450   -2.6420    3.5140 hc        1 MOL      0.026528
    114 H50         1.9670   -2.6920    4.1760 hc        1 MOL      0.026528
    115 H51         0.4130   -0.2520    1.9920 hc        1 MOL      0.066316
    116 H52         0.4480   -0.9180    3.6890 hc        1 MOL      0.066316
    117 H53         1.5070    0.4350    3.2610 hc        1 MOL      0.066316
    118 H54         2.4330   -0.3850    5.1100 hc        1 MOL      0.023107
    119 H55         3.7290   -1.4770    5.5700 hc        1 MOL      0.023107
    120 H56         3.9050   -0.2930    4.1830 hc        1 MOL      0.023107
    121 N11         3.2980   -3.0100    0.0450 n         1 MOL     -0.199929
    122 C40         4.5080   -3.5310   -0.6180 c3        1 MOL      0.079544
    123 C41         5.7140   -2.7780   -0.0720 c         1 MOL      0.440594
    124 O16         5.5520   -1.7330    0.5670 o         1 MOL     -0.409564
    125 C42         4.4740   -3.2060   -2.1160 c3        1 MOL     -0.090218
    126 O17         4.5050   -1.7670   -2.4140 oh        1 MOL     -0.446138
    127 H57         2.9830   -2.1700   -0.4170 hn        1 MOL      0.132987
    128 H58         4.6320   -4.6140   -0.5580 h1        1 MOL      0.071484
    129 H59         3.5610   -3.6910   -2.4560 h1        1 MOL      0.078887
    130 H60         5.3370   -3.6590   -2.6030 h1        1 MOL      0.078887
    131 H61         3.7430   -1.6090   -2.9740 ho        1 MOL      0.392440
    132 N12         6.9760   -3.2620   -0.2920 n         1 MOL     -0.485803
    133 C43         8.1710   -2.6180    0.1850 c3        1 MOL      0.209829
    134 C44         8.4380   -1.2450   -0.4890 c         1 MOL      0.455465
    135 O18         9.0800   -0.3760    0.0490 o         1 MOL     -0.504465
    136 C45         9.3200   -3.5570   -0.1100 c3        1 MOL     -0.252625
    137 H62         7.0770   -4.1260   -0.8200 hn        1 MOL      0.285997
    138 H63         8.0930   -2.4570    1.2670 h1        1 MOL      0.059581
    139 H64         9.8370   -3.2170   -1.0130 hc        1 MOL      0.073851
    140 H65         9.9640   -3.4020    0.7560 hc        1 MOL      0.073851
    141 H66         8.9700   -4.5850   -0.1790 hc        1 MOL      0.073851
    142 N13         7.9540   -1.1070   -1.7560 n         1 MOL     -0.334250
    143 C46         7.9830    0.1380   -2.4530 c3        1 MOL      0.028373
    144 C47         7.0590    1.1080   -1.7130 c         1 MOL      0.344821
    145 O19         7.4580    2.2980   -1.6500 o         1 MOL     -0.522040
    146 C48         7.5020   -0.0280   -3.9180 c3        1 MOL     -0.259305
    147 H67         7.4440   -1.8440   -2.2210 hn        1 MOL      0.235013
    148 H68         9.0160    0.4890   -2.4770 h1        1 MOL      0.115203
    149 H69         6.6030   -0.5840   -4.1730 hc        1 MOL      0.075304
    150 H70         7.3270    0.9800   -4.2860 hc        1 MOL      0.075304
    151 H71         8.2930   -0.4980   -4.5080 hc        1 MOL      0.075304
    152 N14         5.8930    0.7130   -1.2050 n         1 MOL      0.053449
    153 C49         5.0190    1.7650   -0.5530 c3        1 MOL     -0.154498
    154 C50         5.5810    2.1340    0.8440 c         1 MOL      0.414653
    155 O20         5.6980    3.3600    1.0840 o         1 MOL     -0.565888
    156 C51         3.6200    1.1550   -0.4570 c3        1 MOL      0.134249
    157 C52         2.8270    0.9550   -1.7060 c3        1 MOL      0.051863
    158 C53         1.4920    0.2720   -1.4210 c         1 MOL      0.526512
    159 O21         0.5240    0.9590   -1.0480 o         1 MOL     -0.691851
    160 O22         1.3650   -0.9910   -1.5440 o         1 MOL     -0.691851
    161 H72         5.5070   -0.1840   -1.4290 hn        1 MOL     -0.003658
    162 H73         4.9930    2.5680   -1.2870 h1        1 MOL      0.097612
    163 H74         3.1660    1.9360    0.1590 hc        1 MOL      0.029163
    164 H75         3.5530    0.2120    0.0890 hc        1 MOL      0.029163
    165 H76         3.4490    0.3530   -2.3720 hc        1 MOL     -0.045518
    166 H77         2.6930    1.8830   -2.2590 hc        1 MOL     -0.045518
    167 N15         6.0840    1.2070    1.6350 n         1 MOL     -0.056894
    168 C54         6.9500    1.6260    2.7690 c3        1 MOL     -0.297577
    169 H78         7.6350    2.4050    2.4340 h1        1 MOL      0.115120
    170 H79         6.3290    2.0130    3.5770 h1        1 MOL      0.115120
    171 H80         7.5210    0.7700    3.1270 h1        1 MOL      0.115120
    172 H81         5.9970    0.2080    1.5020 hn        1 MOL      0.162869
    173 Ca1        -1.6310   -0.4490   -1.4290 Ca        1 MOL      1.780983
    174 O23        -1.0130   -0.7150   -4.1660 oh        1 MOL     -0.803263
    175 H82        -1.0420   -0.0050   -4.8000 ho        1 MOL      0.399028
    176 H83        -0.1310   -1.0730   -4.2450 ho        1 MOL      0.399028
    177 O24        -1.3540   -3.2250   -2.1570 oh        1 MOL     -0.803263
    178 H84        -0.9430   -3.5570   -2.9540 ho        1 MOL      0.399028
    179 H85        -1.5300   -4.0180   -1.6440 ho        1 MOL      0.399028
@<TRIPOS>BOND
     1    1    2 1   
     2    1    4 1   
     3    1    5 1   
     4    1    6 1   
     5    2    3 2   
     6    2    7 1   
     7    7    8 1   
     8    7   15 1   
     9    8    9 1   
    10    8   11 1   
    11    8   16 1   
    12    9   10 2   
    13    9   19 1   
    14   11   12 1   
    15   11   17 1   
    16   11   18 1   
    17   12   13 1   
    18   12   14 1   
    19   19   20 1   
    20   19   28 1   
    21   20   21 1   
    22   20   23 1   
    23   20   29 1   
    24   21   22 2   
    25   21   41 1   
    26   23   24 1   
    27   23   30 1   
    28   23   31 1   
    29   24   25 1   
    30   24   32 1   
    31   24   33 1   
    32   25   26 1   
    33   25   34 1   
    34   25   35 1   
    35   26   27 1   
    36   26   36 1   
    37   26   37 1   
    38   27   38 1   
    39   27   39 1   
    40   27   40 1   
    41   41   42 1   
    42   41   49 1   
    43   42   43 1   
    44   42   45 1   
    45   42   50 1   
    46   43   44 2   
    47   43   53 1   
    48   45   46 1   
    49   45   51 1   
    50   45   52 1   
    51   46   47 1   
    52   46   48 1   
    53   53   54 1   
    54   53   57 1   
    55   54   55 1   
    56   54   58 1   
    57   54   59 1   
    58   55   56 2   
    59   55   60 1   
    60   60   61 1   
    61   60   68 1   
    62   61   62 1   
    63   61   64 1   
    64   61   69 1   
    65   62   63 2   
    66   62   74 1   
    67   64   65 1   
    68   64   70 1   
    69   64   71 1   
    70   65   66 1   
    71   65   67 2   
    72   66   72 1   
    73   66   73 1   
    74   74   75 1   
    75   74   78 1   
    76   75   76 1   
    77   75   79 1   
    78   75   80 1   
    79   76   77 2   
    80   76   81 1   
    81   81   82 1   
    82   81   93 1   
    83   82   83 1   
    84   82   85 1   
    85   82   94 1   
    86   83   84 2   
    87   83  102 1   
    88   85   86 1   
    89   85   95 1   
    90   85   96 1   
    91   86   87 ar  
    92   86   88 ar  
    93   87   89 ar  
    94   87   97 1   
    95   88   90 ar  
    96   88   98 1   
    97   89   91 ar  
    98   89   99 1   
    99   90   91 ar  
   100   90  100 1   
   101   91   92 1   
   102   92  101 1   
   103  102  103 1   
   104  102  110 1   
   105  103  104 1   
   106  103  106 1   
   107  103  111 1   
   108  104  105 2   
   109  104  121 1   
   110  106  107 1   
   111  106  108 1   
   112  106  112 1   
   113  107  109 1   
   114  107  113 1   
   115  107  114 1   
   116  108  115 1   
   117  108  116 1   
   118  108  117 1   
   119  109  118 1   
   120  109  119 1   
   121  109  120 1   
   122  121  122 1   
   123  121  127 1   
   124  122  123 1   
   125  122  125 1   
   126  122  128 1   
   127  123  124 2   
   128  123  132 1   
   129  125  126 1   
   130  125  129 1   
   131  125  130 1   
   132  126  131 1   
   133  132  133 1   
   134  132  137 1   
   135  133  134 1   
   136  133  136 1   
   137  133  138 1   
   138  134  135 2   
   139  134  142 1   
   140  136  139 1   
   141  136  140 1   
   142  136  141 1   
   143  142  143 1   
   144  142  147 1   
   145  143  144 1   
   146  143  146 1   
   147  143  148 1   
   148  144  145 2   
   149  144  152 1   
   150  146  149 1   
   151  146  150 1   
   152  146  151 1   
   153  152  153 1   
   154  152  161 1   
   155  153  154 1   
   156  153  156 1   
   157  153  162 1   
   158  154  155 2   
   159  154  167 1   
   160  156  157 1   
   161  156  163 1   
   162  156  164 1   
   163  157  158 1   
   164  157  165 1   
   165  157  166 1   
   166  158  159 1   
   167  158  160 1   
   168  167  168 1   
   169  167  172 1   
   170  168  169 1   
   171  168  170 1   
   172  168  171 1   
   173  174  175 1   
   174  174  176 1   
   175  177  178 1   
   176  177  179 1   
@<TRIPOS>SUBSTRUCTURE
     1 MOL         1 TEMP              0 ****  ****    0 ROOT
