@<TRIPOS>MOLECULE
MOL
  172   171     1     0     0
SMALL
resp


@<TRIPOS>ATOM
      1 C1          0.3280    3.9120    5.5380 c3        1 MOL     -0.370384
      2 C2         -0.3110    3.7530    4.1410 c         1 MOL      0.768429
      3 O1          0.3720    3.8240    3.1540 o         1 MOL     -0.563019
      4 H1          0.0740    3.0490    6.1540 hc        1 MOL      0.085747
      5 H2          1.4110    3.9800    5.4370 hc        1 MOL      0.085747
      6 H3         -0.0500    4.8190    6.0110 hc        1 MOL      0.085747
      7 N1         -1.6090    3.4560    4.0550 n         1 MOL     -0.708167
      8 C3         -2.2450    3.2680    2.8260 c3        1 MOL      0.374639
      9 C4         -2.4000    4.6750    2.0550 c         1 MOL      0.556469
     10 O2         -2.5560    5.7010    2.6440 o         1 MOL     -0.568485
     11 C5         -3.6220    2.4890    2.9540 c3        1 MOL     -0.290521
     12 C6         -4.2500    2.1260    1.5720 c         1 MOL      0.577454
     13 O3         -5.4460    2.3500    1.5250 o         1 MOL     -0.589596
     14 O4         -3.4900    1.9410    0.6140 o         1 MOL     -0.589596
     15 H4         -2.2110    3.2700    4.8370 hn        1 MOL      0.314439
     16 H5         -1.6040    2.5790    2.2800 h1        1 MOL      0.008032
     17 H6         -4.3230    3.0650    3.5580 hc        1 MOL      0.035539
     18 H7         -3.3930    1.5350    3.4300 hc        1 MOL      0.035539
     19 N2         -2.4690    4.6240    0.6830 n         1 MOL     -0.460502
     20 C7         -3.0610    5.6850   -0.1310 c3        1 MOL      0.310838
     21 C8         -4.0810    5.1550   -1.1680 c         1 MOL      0.352594
     22 O5         -4.8140    6.0030   -1.7290 o         1 MOL     -0.582805
     23 C9         -2.0870    6.6070   -0.8170 c3        1 MOL     -0.202218
     24 H8         -2.2730    3.7460    0.2320 hn        1 MOL      0.211846
     25 H9         -3.6330    6.3010    0.5760 h1        1 MOL      0.021059
     26 H10        -1.6660    6.2240   -1.7500 hc        1 MOL      0.042362
     27 H11        -2.5780    7.5280   -1.1330 hc        1 MOL      0.042362
     28 H12        -1.2340    6.8680   -0.1890 hc        1 MOL      0.042362
     29 N3         -4.1280    3.8680   -1.4800 n         1 MOL     -0.202666
     30 C10        -4.8480    3.2200   -2.6350 c3        1 MOL      0.082422
     31 C11        -6.1860    2.4230   -2.4990 c         1 MOL      0.372973
     32 O6         -6.8790    2.0660   -3.4360 o         1 MOL     -0.542534
     33 C12        -3.8190    2.4810   -3.3980 c3        1 MOL     -0.297773
     34 C13        -3.1370    1.3210   -2.7000 c         1 MOL      0.832661
     35 O7         -1.9150    1.1840   -2.5850 o         1 MOL     -0.755096
     36 O8         -3.8090    0.5420   -2.0680 o         1 MOL     -0.755096
     37 H13        -3.4150    3.2950   -1.0520 hn        1 MOL      0.264016
     38 H14        -5.2460    3.9860   -3.3000 h1        1 MOL      0.078916
     39 H15        -3.0630    3.1410   -3.8400 hc        1 MOL      0.058346
     40 H16        -4.3180    1.9610   -4.2120 hc        1 MOL      0.058346
     41 N4         -6.4440    2.0610   -1.2330 n         1 MOL     -0.133737
     42 C14        -7.5010    1.2400   -0.7010 c3        1 MOL     -0.233847
     43 C15        -7.3480   -0.2310   -0.9780 c         1 MOL      0.558083
     44 O9         -8.2710   -0.8840   -0.4410 o         1 MOL     -0.638042
     45 H17        -5.7810    2.2850   -0.5130 hn        1 MOL      0.084956
     46 H18        -8.4490    1.6090   -1.1070 h1        1 MOL      0.125222
     47 H19        -7.4780    1.4210    0.3710 h1        1 MOL      0.125222
     48 N5         -6.3030   -0.8120   -1.5600 n         1 MOL     -0.284266
     49 C16        -6.2100   -2.2460   -1.9660 c3        1 MOL     -0.043741
     50 C17        -6.2560   -3.2160   -0.7740 c         1 MOL      0.447858
     51 O10        -6.0690   -4.4470   -0.9290 o         1 MOL     -0.544264
     52 C18        -5.0900   -2.5990   -2.9490 c3        1 MOL     -0.124656
     53 C19        -3.6650   -2.4690   -2.4330 c         1 MOL      0.598271
     54 N6         -2.7370   -2.3500   -3.3060 n         1 MOL     -0.635754
     55 O11        -3.4280   -2.4120   -1.2570 o         1 MOL     -0.500541
     56 H20        -5.4850   -0.2520   -1.7450 hn        1 MOL      0.234950
     57 H21        -7.1530   -2.4320   -2.4760 h1        1 MOL      0.097976
     58 H22        -5.1460   -2.0500   -3.8910 hc        1 MOL      0.051951
     59 H23        -5.2590   -3.6360   -3.2190 hc        1 MOL      0.051951
     60 H24        -2.9930   -2.3500   -4.2910 hn        1 MOL      0.323186
     61 H25        -1.8150   -2.1240   -2.9530 hn        1 MOL      0.323186
     62 N7         -6.0930   -2.7570    0.4790 n         1 MOL     -0.141674
     63 C20        -6.0170   -3.5880    1.6350 c3        1 MOL     -0.362344
     64 C21        -4.7190   -4.4240    1.9030 c         1 MOL      0.547230
     65 O12        -4.6830   -5.2420    2.8310 o         1 MOL     -0.567183
     66 H26        -5.9590   -1.7560    0.5500 hn        1 MOL      0.263337
     67 H27        -6.8810   -4.2520    1.5480 h1        1 MOL      0.132057
     68 H28        -6.0820   -2.9300    2.5020 h1        1 MOL      0.132057
     69 N8         -3.6470   -3.9950    1.2300 n         1 MOL     -0.072934
     70 C22        -2.3000   -4.5660    1.3150 c3        1 MOL     -0.600292
     71 C23        -1.2230   -3.4770    1.3170 c         1 MOL      0.954329
     72 O13        -1.4220   -2.4890    0.7170 o         1 MOL     -0.635165
     73 C24        -1.9850   -5.6030    0.2130 c3        1 MOL      0.678277
     74 C25        -2.9540   -6.8010    0.3130 c3        1 MOL     -0.546653
     75 O14        -1.9900   -5.0230   -1.1230 oh        1 MOL     -0.646460
     76 H29        -3.8250   -3.2820    0.5340 hn        1 MOL      0.172871
     77 H30        -2.2350   -5.1110    2.2600 h1        1 MOL      0.142549
     78 H31        -0.9750   -6.0030    0.3140 h1        1 MOL     -0.050016
     79 H32        -1.8800   -4.0700   -1.0470 ho        1 MOL      0.362382
     80 H33        -2.8670   -7.2630    1.2930 hc        1 MOL      0.133775
     81 H34        -4.0020   -6.5140    0.2720 hc        1 MOL      0.133775
     82 H35        -2.8760   -7.5810   -0.4520 hc        1 MOL      0.133775
     83 N9         -0.1300   -3.7750    1.9610 n         1 MOL     -0.782973
     84 C26         1.0430   -2.8800    1.9250 c3        1 MOL     -0.053044
     85 C27         1.7460   -3.0390    0.5640 c         1 MOL      0.612274
     86 O15         2.0550   -4.2020    0.1960 o         1 MOL     -0.596915
     87 C28         1.9860   -3.1240    3.1570 c3        1 MOL      0.277299
     88 C29         1.2310   -3.5310    4.3880 c3        1 MOL      0.108876
     89 C30         2.7840   -1.8400    3.3400 c3        1 MOL     -0.395346
     90 C31         2.1010   -3.9830    5.6190 c3        1 MOL     -0.151053
     91 H36         0.0070   -4.6500    2.4430 hn        1 MOL      0.370488
     92 H37         0.7180   -1.8410    1.9760 h1        1 MOL      0.133647
     93 H38         2.7180   -3.9020    2.9250 hc        1 MOL     -0.041203
     94 H39         0.5680   -4.3560    4.1550 hc        1 MOL     -0.022191
     95 H40         0.5980   -2.7150    4.7620 hc        1 MOL     -0.022191
     96 H41         2.1460   -1.0420    3.7300 hc        1 MOL      0.082166
     97 H42         3.6510   -2.0760    3.9660 hc        1 MOL      0.082166
     98 H43         3.1630   -1.5040    2.3770 hc        1 MOL      0.082166
     99 H44         2.8370   -3.2290    5.8690 hc        1 MOL      0.026689
    100 H45         1.3790   -4.1080    6.4210 hc        1 MOL      0.026689
    101 H46         2.5420   -4.9510    5.3770 hc        1 MOL      0.026689
    102 N10         1.8330   -1.9890   -0.2190 n         1 MOL     -0.214245
    103 C32         2.5900   -1.8110   -1.4400 c3        1 MOL      0.193813
    104 C33         4.0240   -1.3380   -1.1410 c         1 MOL      0.247942
    105 O16         4.1180   -0.6020   -0.1270 o         1 MOL     -0.216486
    106 C34         1.8450   -0.8370   -2.3510 c3        1 MOL     -0.385880
    107 C35         0.4690   -1.3260   -2.7970 c         1 MOL      0.800391
    108 O17         0.4560   -2.0850   -3.8330 o         1 MOL     -0.690165
    109 O18        -0.5630   -1.0770   -2.1400 o         1 MOL     -0.690165
    110 H47         1.7430   -1.1100    0.2610 hn        1 MOL     -0.070226
    111 H48         2.6020   -2.7100   -2.0450 h1        1 MOL      0.043866
    112 H49         2.5010   -0.5780   -3.1820 hc        1 MOL      0.103695
    113 H50         1.8720    0.0910   -1.7880 hc        1 MOL      0.103695
    114 N11         5.0340   -1.6090   -1.9820 n         1 MOL     -0.532676
    115 C36         6.4130   -1.2800   -1.5810 c3        1 MOL      0.198162
    116 C37         6.7410    0.2030   -1.1640 c         1 MOL      0.373451
    117 O19         7.4910    0.3330   -0.2150 o         1 MOL     -0.450849
    118 C38         7.3880   -1.9610   -2.5500 c3        1 MOL     -0.265414
    119 C39         8.8170   -1.6450   -2.0860 ca        1 MOL      0.107370
    120 C40         9.6010   -0.7250   -2.8270 ca        1 MOL     -0.186234
    121 C41         9.3470   -2.3110   -0.9570 ca        1 MOL     -0.186234
    122 C42        10.8950   -0.3700   -2.3310 ca        1 MOL     -0.112423
    123 C43        10.6620   -1.9750   -0.5270 ca        1 MOL     -0.112423
    124 C44        11.4110   -1.0130   -1.1860 ca        1 MOL     -0.081419
    125 H51         4.9320   -2.1240   -2.8410 hn        1 MOL      0.350000
    126 H52         6.5810   -1.8260   -0.6510 h1        1 MOL      0.118868
    127 H53         7.2150   -1.6560   -3.5790 hc        1 MOL      0.092491
    128 H54         7.2980   -3.0420   -2.4840 hc        1 MOL      0.092491
    129 H55         9.2410   -0.3610   -3.7790 ha        1 MOL      0.125107
    130 H56         8.6980   -3.0140   -0.4480 ha        1 MOL      0.125107
    131 H57        11.5070    0.3950   -2.7940 ha        1 MOL      0.112817
    132 H58        11.0740   -2.5830    0.2670 ha        1 MOL      0.112817
    133 H59        12.4710   -0.8420   -1.0680 ha        1 MOL      0.085495
    134 N12         6.2200    1.2790   -1.8030 n         1 MOL     -0.169782
    135 C45         6.4490    2.7170   -1.4060 c3        1 MOL     -0.003903
    136 C46         5.7130    2.9750   -0.0500 c         1 MOL      0.332659
    137 O20         6.1940    3.7840    0.7590 o         1 MOL     -0.508374
    138 C47         5.8060    3.5500   -2.5160 c3        1 MOL     -0.179565
    139 C48         4.6950    2.6570   -3.1510 c3        1 MOL      0.013467
    140 C49         5.3030    1.2660   -2.9180 c3        1 MOL      0.160427
    141 H60         7.5330    2.8600   -1.4090 h1        1 MOL      0.101448
    142 H61         5.2790    4.4040   -2.0820 hc        1 MOL      0.070385
    143 H62         6.5860    3.8310   -3.2280 hc        1 MOL      0.070385
    144 H63         3.7290    2.7650   -2.6750 hc        1 MOL      0.023854
    145 H64         4.5960    2.8160   -4.2270 hc        1 MOL      0.023854
    146 H65         4.4240    0.6250   -2.8020 h1        1 MOL     -0.025117
    147 H66         5.7560    0.9080   -3.8420 h1        1 MOL     -0.025117
    148 N13         4.6100    2.3180    0.2760 n         1 MOL     -0.053652
    149 C50         4.0080    2.3600    1.6210 c3        1 MOL     -0.217285
    150 C51         4.9230    1.6040    2.6460 c         1 MOL      0.488174
    151 O21         5.1760    2.1460    3.6990 o         1 MOL     -0.538197
    152 C52         2.5590    1.8330    1.6490 c3        1 MOL      0.028204
    153 C53         1.7020    2.3790    0.5270 c3        1 MOL     -0.196805
    154 C54         0.2800    1.8040    0.5220 c         1 MOL      0.668430
    155 O22        -0.6000    2.3530   -0.1940 o         1 MOL     -0.733404
    156 O23        -0.0120    0.7180    1.1250 o         1 MOL     -0.733404
    157 H67         4.2980    1.5640   -0.3200 hn        1 MOL      0.122154
    158 H68         3.8570    3.4010    1.9240 h1        1 MOL      0.142848
    159 H69         2.1410    2.0940    2.6200 hc        1 MOL      0.052313
    160 H70         2.5830    0.7490    1.5860 hc        1 MOL      0.052313
    161 H71         2.1950    2.1360   -0.4130 hc        1 MOL      0.079753
    162 H72         1.6420    3.4610    0.6600 hc        1 MOL      0.079753
    163 N14         5.5010    0.4170    2.2680 n         1 MOL     -0.069420
    164 C55         6.5880   -0.3100    2.9690 c3        1 MOL     -0.234213
    165 H73         6.1670   -0.8880    3.7920 h1        1 MOL      0.087229
    166 H74         7.0850   -0.9840    2.2700 h1        1 MOL      0.087229
    167 H75         7.3120    0.4050    3.3610 h1        1 MOL      0.087229
    168 H76         5.2970    0.1120    1.3270 hn        1 MOL      0.034639
    169 Ca1        -1.9860   -0.0690   -0.2560 Ca        1 MOL      1.759136
    170 O24        -3.5390   -0.8390    1.7990 oh        1 MOL     -1.069431
    171 H77        -4.2840   -0.3680    2.1830 ho        1 MOL      0.483365
    172 H78        -3.1100   -1.2460    2.5560 ho        1 MOL      0.483365
@<TRIPOS>BOND
     1    1    2 1   
     2    1    4 1   
     3    1    5 1   
     4    1    6 1   
     5    2    3 2   
     6    2    7 1   
     7    7    8 1   
     8    7   15 1   
     9    8    9 1   
    10    8   11 1   
    11    8   16 1   
    12    9   10 2   
    13    9   19 1   
    14   11   12 1   
    15   11   17 1   
    16   11   18 1   
    17   12   13 1   
    18   12   14 1   
    19   19   20 1   
    20   19   24 1   
    21   20   21 1   
    22   20   23 1   
    23   20   25 1   
    24   21   22 2   
    25   21   29 1   
    26   23   26 1   
    27   23   27 1   
    28   23   28 1   
    29   29   30 1   
    30   29   37 1   
    31   30   31 1   
    32   30   33 1   
    33   30   38 1   
    34   31   32 2   
    35   31   41 1   
    36   33   34 1   
    37   33   39 1   
    38   33   40 1   
    39   34   35 1   
    40   34   36 1   
    41   41   42 1   
    42   41   45 1   
    43   42   43 1   
    44   42   46 1   
    45   42   47 1   
    46   43   44 2   
    47   43   48 1   
    48   48   49 1   
    49   48   56 1   
    50   49   50 1   
    51   49   52 1   
    52   49   57 1   
    53   50   51 2   
    54   50   62 1   
    55   52   53 1   
    56   52   58 1   
    57   52   59 1   
    58   53   54 1   
    59   53   55 2   
    60   54   60 1   
    61   54   61 1   
    62   62   63 1   
    63   62   66 1   
    64   63   64 1   
    65   63   67 1   
    66   63   68 1   
    67   64   65 2   
    68   64   69 1   
    69   69   70 1   
    70   69   76 1   
    71   70   71 1   
    72   70   73 1   
    73   70   77 1   
    74   71   72 2   
    75   71   83 1   
    76   73   74 1   
    77   73   75 1   
    78   73   78 1   
    79   74   80 1   
    80   74   81 1   
    81   74   82 1   
    82   75   79 1   
    83   83   84 1   
    84   83   91 1   
    85   84   85 1   
    86   84   87 1   
    87   84   92 1   
    88   85   86 2   
    89   85  102 1   
    90   87   88 1   
    91   87   89 1   
    92   87   93 1   
    93   88   90 1   
    94   88   94 1   
    95   88   95 1   
    96   89   96 1   
    97   89   97 1   
    98   89   98 1   
    99   90   99 1   
   100   90  100 1   
   101   90  101 1   
   102  102  103 1   
   103  102  110 1   
   104  103  104 1   
   105  103  106 1   
   106  103  111 1   
   107  104  105 2   
   108  104  114 1   
   109  106  107 1   
   110  106  112 1   
   111  106  113 1   
   112  107  108 1   
   113  107  109 1   
   114  114  115 1   
   115  114  125 1   
   116  115  116 1   
   117  115  118 1   
   118  115  126 1   
   119  116  117 2   
   120  116  134 1   
   121  118  119 1   
   122  118  127 1   
   123  118  128 1   
   124  119  120 ar  
   125  119  121 ar  
   126  120  122 ar  
   127  120  129 1   
   128  121  123 ar  
   129  121  130 1   
   130  122  124 ar  
   131  122  131 1   
   132  123  124 ar  
   133  123  132 1   
   134  124  133 1   
   135  134  135 1   
   136  134  140 1   
   137  135  136 1   
   138  135  138 1   
   139  135  141 1   
   140  136  137 2   
   141  136  148 1   
   142  138  139 1   
   143  138  142 1   
   144  138  143 1   
   145  139  140 1   
   146  139  144 1   
   147  139  145 1   
   148  140  146 1   
   149  140  147 1   
   150  148  149 1   
   151  148  157 1   
   152  149  150 1   
   153  149  152 1   
   154  149  158 1   
   155  150  151 2   
   156  150  163 1   
   157  152  153 1   
   158  152  159 1   
   159  152  160 1   
   160  153  154 1   
   161  153  161 1   
   162  153  162 1   
   163  154  155 1   
   164  154  156 1   
   165  163  164 1   
   166  163  168 1   
   167  164  165 1   
   168  164  166 1   
   169  164  167 1   
   170  170  171 1   
   171  170  172 1   
@<TRIPOS>SUBSTRUCTURE
     1 MOL         1 TEMP              0 ****  ****    0 ROOT
