@<TRIPOS>MOLECULE
MOL
  179   176     1     0     0
SMALL
resp


@<TRIPOS>ATOM
      1 C1          2.4790    2.6250    4.8050 c3        1 MOL     -0.481483
      2 C2          1.6740    2.1930    3.5840 c         1 MOL      0.813633
      3 O1          2.2710    1.8810    2.5460 o         1 MOL     -0.601192
      4 H1          2.3060    1.9240    5.6210 hc        1 MOL      0.116072
      5 H2          3.5400    2.6370    4.5560 hc        1 MOL      0.116072
      6 H3          2.1660    3.6230    5.1130 hc        1 MOL      0.116072
      7 N1          0.3510    2.1830    3.6900 n         1 MOL     -0.578633
      8 C3         -0.4700    2.1110    2.5130 c3        1 MOL      0.182056
      9 C4         -0.3440    3.3810    1.6600 c         1 MOL      0.231315
     10 O2         -1.0860    4.2900    1.8960 o         1 MOL     -0.443484
     11 C5         -1.8960    1.7150    2.9330 c3        1 MOL      0.027649
     12 C6         -2.9060    1.5710    1.7690 c         1 MOL      0.454288
     13 O3         -4.1080    1.3970    2.0550 o         1 MOL     -0.602120
     14 O4         -2.5130    1.4970    0.5670 o         1 MOL     -0.602120
     15 H4         -0.2590    2.4090    4.4650 hn        1 MOL      0.314981
     16 H5         -0.0940    1.3700    1.8210 h1        1 MOL     -0.109438
     17 H6         -2.1590    2.3750    3.7650 hc        1 MOL      0.029967
     18 H7         -1.9840    0.7980    3.5060 hc        1 MOL      0.029967
     19 N2          0.6340    3.4790    0.7740 n         1 MOL     -0.152318
     20 C7          1.0830    4.7980    0.2000 c3        1 MOL     -0.199551
     21 C8          0.0190    5.4390   -0.7310 c         1 MOL      0.416451
     22 O5         -0.0160    6.6860   -0.8690 o         1 MOL     -0.557849
     23 C9          2.4280    4.7820   -0.4310 c3        1 MOL     -0.215626
     24 C10         3.4940    4.7100    0.5830 c3        1 MOL     -0.104193
     25 C11         3.6640    6.0140    1.4500 c3        1 MOL     -0.037649
     26 C12         4.8980    5.8530    2.3690 c3        1 MOL      0.040783
     27 N3          4.8360    6.8960    3.3820 n4        1 MOL     -0.408527
     28 H8          1.2210    2.6680    0.7190 hn        1 MOL      0.382228
     29 H9          1.0230    5.4440    1.0760 h1        1 MOL      0.119200
     30 H10         2.6010    5.6730   -1.0360 hc        1 MOL      0.138237
     31 H11         2.4990    3.9680   -1.1440 hc        1 MOL      0.138237
     32 H12         4.3610    4.5000   -0.0420 hc        1 MOL      0.078351
     33 H13         3.3810    3.8480    1.2370 hc        1 MOL      0.078351
     34 H14         2.8870    6.2480    2.1690 hc        1 MOL      0.052989
     35 H15         3.8430    6.9150    0.8650 hc        1 MOL      0.052989
     36 H16         5.7750    5.9710    1.7390 hx        1 MOL      0.086504
     37 H17         4.7470    4.8630    2.7970 hx        1 MOL      0.086504
     38 H18         5.3430    6.5770    4.1840 hn        1 MOL      0.341152
     39 H19         5.2760    7.7510    3.0620 hn        1 MOL      0.341152
     40 H20         3.8760    7.0530    3.6560 hn        1 MOL      0.341152
     41 N4         -0.8460    4.5950   -1.3130 n         1 MOL     -0.041913
     42 C13        -1.8790    5.0500   -2.2320 c3        1 MOL     -0.013329
     43 C14        -3.3410    4.8480   -1.6630 c         1 MOL      0.341504
     44 O6         -4.3000    5.1190   -2.4020 o         1 MOL     -0.513722
     45 C15        -1.7250    4.3150   -3.6300 c3        1 MOL     -0.094156
     46 C16        -2.0340    2.8210   -3.5990 c         1 MOL      0.748465
     47 O7         -2.0930    2.1330   -4.6440 o         1 MOL     -0.730278
     48 O8         -2.3500    2.2860   -2.5450 o         1 MOL     -0.730278
     49 H21        -0.6640    3.6170   -1.1430 hn        1 MOL      0.041984
     50 H22        -1.6480    6.1030   -2.4140 h1        1 MOL      0.104333
     51 H23        -0.7200    4.4920   -4.0080 hc        1 MOL      0.032781
     52 H24        -2.2500    4.9480   -4.3360 hc        1 MOL      0.032781
     53 N5         -3.3970    4.3830   -0.4080 n         1 MOL     -0.067526
     54 C17        -4.6130    4.1790    0.3610 c3        1 MOL     -0.136065
     55 C18        -5.7180    3.2620   -0.0960 c         1 MOL      0.583260
     56 O9         -6.8400    3.3830    0.3410 o         1 MOL     -0.557384
     57 H25        -2.5510    4.0880    0.0440 hn        1 MOL      0.040072
     58 H26        -5.0340    5.1620    0.5810 h1        1 MOL      0.084480
     59 H27        -4.2110    3.8050    1.3020 h1        1 MOL      0.084480
     60 N6         -5.4020    2.3090   -0.9960 n         1 MOL     -0.469695
     61 C19        -6.3770    1.3540   -1.5410 c3        1 MOL      0.046555
     62 C20        -6.8750    0.3320   -0.5100 c         1 MOL      0.425082
     63 O10        -7.9600   -0.1380   -0.7060 o         1 MOL     -0.554636
     64 C21        -5.9070    0.6480   -2.7950 c3        1 MOL     -0.221747
     65 C22        -4.9950   -0.4570   -2.4350 c         1 MOL      0.327448
     66 N7         -5.4240   -1.5910   -2.9330 n         1 MOL     -0.512445
     67 O11        -4.0230   -0.3680   -1.7190 o         1 MOL     -0.470655
     68 H28        -4.4200    2.2230   -1.2030 hn        1 MOL      0.392283
     69 H29        -7.2710    1.8110   -1.9610 h1        1 MOL      0.102269
     70 H30        -5.4090    1.3730   -3.4460 hc        1 MOL      0.124092
     71 H31        -6.7480    0.2960   -3.4030 hc        1 MOL      0.124092
     72 H32        -6.2390   -1.5640   -3.5260 hn        1 MOL      0.304898
     73 H33        -4.7230   -2.3120   -3.0260 hn        1 MOL      0.304898
     74 N8         -6.0800    0.0550    0.5450 n         1 MOL      0.030721
     75 C23        -6.2820   -0.8560    1.6610 c3        1 MOL     -0.354268
     76 C24        -5.1470   -1.7780    2.0540 c         1 MOL      0.612797
     77 O12        -5.4050   -2.6160    2.9550 o         1 MOL     -0.576038
     78 H34        -5.2050    0.5490    0.4950 hn        1 MOL      0.129288
     79 H35        -7.1550   -1.4630    1.4420 h1        1 MOL      0.154221
     80 H36        -6.5330   -0.1700    2.4700 h1        1 MOL      0.154221
     81 N9         -3.9680   -1.8900    1.4350 n         1 MOL     -0.302496
     82 C25        -3.0030   -2.9430    1.6810 c3        1 MOL      0.281037
     83 C26        -1.5660   -2.3410    1.6930 c         1 MOL      0.394659
     84 O13        -1.2810   -1.3830    1.0200 o         1 MOL     -0.516726
     85 C27        -3.1600   -4.0730    0.6560 c3        1 MOL     -0.048726
     86 C28        -4.5760   -4.7180    0.5750 ca        1 MOL      0.218589
     87 C29        -5.5720   -4.1300   -0.2670 ca        1 MOL     -0.332763
     88 C30        -4.7700   -6.0100    1.1260 ca        1 MOL     -0.332763
     89 C31        -6.8110   -4.8020   -0.3370 ca        1 MOL     -0.108086
     90 C32        -5.9870   -6.7220    1.0380 ca        1 MOL     -0.108086
     91 C33        -6.9750   -6.0900    0.2860 ca        1 MOL      0.203027
     92 O14        -8.1900   -6.7440    0.0980 oh        1 MOL     -0.466620
     93 H37        -3.7500   -1.2090    0.7230 hn        1 MOL      0.101870
     94 H38        -3.1870   -3.3610    2.6650 h1        1 MOL      0.003409
     95 H39        -2.4190   -4.8660    0.7400 hc        1 MOL      0.004316
     96 H40        -2.9550   -3.6960   -0.3460 hc        1 MOL      0.004316
     97 H41        -5.4330   -3.2250   -0.8310 ha        1 MOL      0.147888
     98 H42        -3.9170   -6.4950    1.5850 ha        1 MOL      0.147888
     99 H43        -7.6310   -4.4330   -0.9320 ha        1 MOL      0.134316
    100 H44        -6.0460   -7.7110    1.4700 ha        1 MOL      0.134316
    101 H45        -8.0880   -7.5590    0.5910 ho        1 MOL      0.345174
    102 N10        -0.5570   -3.0720    2.2680 n         1 MOL     -0.463106
    103 C34         0.8210   -2.7780    2.0810 c3        1 MOL     -0.070356
    104 C35         1.4830   -3.8580    1.1810 c         1 MOL      0.422291
    105 O15         1.4220   -5.0790    1.4560 o         1 MOL     -0.537361
    106 C36         1.6610   -2.6890    3.4000 c3        1 MOL      0.319438
    107 C37         0.9650   -1.8610    4.4880 c3        1 MOL      0.126619
    108 C38         2.9800   -2.0570    3.1470 c3        1 MOL     -0.282741
    109 C39         1.5050   -2.1080    5.8900 c3        1 MOL     -0.193051
    110 H46        -0.7660   -3.7950    2.9410 hn        1 MOL      0.280656
    111 H47         0.9290   -1.8130    1.5810 h1        1 MOL      0.228681
    112 H48         1.8590   -3.6570    3.8700 hc        1 MOL     -0.044330
    113 H49        -0.0820   -2.1240    4.6200 hc        1 MOL     -0.041466
    114 H50         1.0150   -0.8230    4.1600 hc        1 MOL     -0.041466
    115 H51         3.5450   -2.7420    2.5140 hc        1 MOL      0.044671
    116 H52         2.8840   -1.1190    2.5940 hc        1 MOL      0.044671
    117 H53         3.5940   -1.9090    4.0390 hc        1 MOL      0.044671
    118 H54         0.9070   -1.5430    6.6130 hc        1 MOL      0.043625
    119 H55         1.4830   -3.1570    6.1610 hc        1 MOL      0.043625
    120 H56         2.5470   -1.7760    5.9660 hc        1 MOL      0.043625
    121 N11         2.2200   -3.3590    0.1860 n         1 MOL     -0.067472
    122 C40         3.1200   -4.0960   -0.7140 c3        1 MOL     -0.170408
    123 C41         4.6030   -3.8580   -0.4870 c         1 MOL      0.535895
    124 O16         5.0330   -2.8410    0.0760 o         1 MOL     -0.423813
    125 C42         2.7060   -3.7420   -2.1660 c3        1 MOL     -0.082372
    126 O17         2.7220   -2.3580   -2.5040 oh        1 MOL     -0.563855
    127 H57         2.1840   -2.3640    0.0360 hn        1 MOL      0.096919
    128 H58         2.9270   -5.1620   -0.5810 h1        1 MOL      0.097683
    129 H59         1.7020   -4.0870   -2.4170 h1        1 MOL      0.100247
    130 H60         3.3550   -4.2270   -2.9010 h1        1 MOL      0.100247
    131 H61         2.0490   -1.8260   -2.0650 ho        1 MOL      0.450254
    132 N12         5.4840   -4.6970   -1.0970 n         1 MOL     -0.493110
    133 C43         6.9690   -4.4990   -1.0130 c3        1 MOL      0.167097
    134 C44         7.3160   -3.1390   -1.6780 c         1 MOL      0.462727
    135 O18         8.1500   -2.4410   -1.1460 o         1 MOL     -0.508793
    136 C45         7.7020   -5.6080   -1.7060 c3        1 MOL     -0.281395
    137 H62         5.1810   -5.5150   -1.6060 hn        1 MOL      0.311349
    138 H63         7.2930   -4.3810    0.0150 h1        1 MOL      0.074123
    139 H64         7.6670   -6.5250   -1.1190 hc        1 MOL      0.085903
    140 H65         7.0760   -5.7730   -2.5850 hc        1 MOL      0.085903
    141 H66         8.7070   -5.3290   -2.0260 hc        1 MOL      0.085903
    142 N13         6.6680   -2.7020   -2.7350 n         1 MOL     -0.393212
    143 C46         6.8920   -1.3800   -3.3330 c3        1 MOL      0.080844
    144 C47         6.6990   -0.1630   -2.4440 c         1 MOL      0.348633
    145 O19         7.5600    0.7250   -2.4670 o         1 MOL     -0.495535
    146 C48         5.9240   -1.2860   -4.4980 c3        1 MOL     -0.264421
    147 H67         5.9330   -3.3090   -3.0540 hn        1 MOL      0.260954
    148 H68         7.9100   -1.1790   -3.6590 h1        1 MOL      0.086413
    149 H69         6.0780   -0.3980   -5.1160 hc        1 MOL      0.073182
    150 H70         5.9530   -2.1240   -5.1950 hc        1 MOL      0.073182
    151 H71         4.9240   -1.1330   -4.1030 hc        1 MOL      0.073182
    152 N14         5.7600   -0.3050   -1.5020 n         1 MOL      0.048166
    153 C49         5.4110    0.6860   -0.6060 c3        1 MOL     -0.431592
    154 C50         6.2530    0.5920    0.7180 c         1 MOL      0.715190
    155 O20         6.7220    1.6130    1.1600 o         1 MOL     -0.600606
    156 C51         3.9170    0.6770   -0.2740 c3        1 MOL      0.097353
    157 C52         3.0690    0.9030   -1.6000 c3        1 MOL      0.033506
    158 C53         1.6270    0.6730   -1.2980 c         1 MOL      0.651158
    159 O21         1.2250   -0.5200   -1.1640 o         1 MOL     -0.756739
    160 O22         0.7970    1.6080   -1.2820 o         1 MOL     -0.756739
    161 H72         5.3490   -1.2190   -1.4090 hn        1 MOL      0.246440
    162 H73         5.5560    1.6030   -1.1880 h1        1 MOL      0.153234
    163 H74         3.7730    1.5620    0.3390 hc        1 MOL     -0.037007
    164 H75         3.5290   -0.1280    0.3550 hc        1 MOL     -0.037007
    165 H76         3.3030    0.1040   -2.2930 hc        1 MOL     -0.014700
    166 H77         3.2410    1.8630   -2.0930 hc        1 MOL     -0.014700
    167 N15         6.5250   -0.6360    1.2290 n         1 MOL     -0.373271
    168 C54         7.5490   -0.8570    2.3350 c3        1 MOL     -0.126788
    169 H78         7.2080   -1.6590    2.9900 h1        1 MOL      0.083058
    170 H79         8.5080   -1.1310    1.8940 h1        1 MOL      0.083058
    171 H80         7.6640    0.0590    2.9130 h1        1 MOL      0.083058
    172 H81         6.1470   -1.4540    0.7660 hn        1 MOL      0.204742
    173 Ca1        -1.4090    0.2170   -1.3120 Ca        1 MOL      1.741393
    174 O23        -1.4640   -0.3900   -3.9210 oh        1 MOL     -0.870735
    175 H82        -1.8760    0.4250   -4.2120 ho        1 MOL      0.413935
    176 H83        -1.3790   -0.9100   -4.7180 ho        1 MOL      0.413935
    177 O24        -1.3450   -2.2880   -2.0000 oh        1 MOL     -0.870735
    178 H84        -0.6210   -2.8960   -2.1810 ho        1 MOL      0.413935
    179 H85        -2.1240   -2.7530   -2.2870 ho        1 MOL      0.413935
@<TRIPOS>BOND
     1    1    2 1   
     2    1    4 1   
     3    1    5 1   
     4    1    6 1   
     5    2    3 2   
     6    2    7 1   
     7    7    8 1   
     8    7   15 1   
     9    8    9 1   
    10    8   11 1   
    11    8   16 1   
    12    9   10 2   
    13    9   19 1   
    14   11   12 1   
    15   11   17 1   
    16   11   18 1   
    17   12   13 1   
    18   12   14 1   
    19   19   20 1   
    20   19   28 1   
    21   20   21 1   
    22   20   23 1   
    23   20   29 1   
    24   21   22 2   
    25   21   41 1   
    26   23   24 1   
    27   23   30 1   
    28   23   31 1   
    29   24   25 1   
    30   24   32 1   
    31   24   33 1   
    32   25   26 1   
    33   25   34 1   
    34   25   35 1   
    35   26   27 1   
    36   26   36 1   
    37   26   37 1   
    38   27   38 1   
    39   27   39 1   
    40   27   40 1   
    41   41   42 1   
    42   41   49 1   
    43   42   43 1   
    44   42   45 1   
    45   42   50 1   
    46   43   44 2   
    47   43   53 1   
    48   45   46 1   
    49   45   51 1   
    50   45   52 1   
    51   46   47 1   
    52   46   48 1   
    53   53   54 1   
    54   53   57 1   
    55   54   55 1   
    56   54   58 1   
    57   54   59 1   
    58   55   56 2   
    59   55   60 1   
    60   60   61 1   
    61   60   68 1   
    62   61   62 1   
    63   61   64 1   
    64   61   69 1   
    65   62   63 2   
    66   62   74 1   
    67   64   65 1   
    68   64   70 1   
    69   64   71 1   
    70   65   66 1   
    71   65   67 2   
    72   66   72 1   
    73   66   73 1   
    74   74   75 1   
    75   74   78 1   
    76   75   76 1   
    77   75   79 1   
    78   75   80 1   
    79   76   77 2   
    80   76   81 1   
    81   81   82 1   
    82   81   93 1   
    83   82   83 1   
    84   82   85 1   
    85   82   94 1   
    86   83   84 2   
    87   83  102 1   
    88   85   86 1   
    89   85   95 1   
    90   85   96 1   
    91   86   87 ar  
    92   86   88 ar  
    93   87   89 ar  
    94   87   97 1   
    95   88   90 ar  
    96   88   98 1   
    97   89   91 ar  
    98   89   99 1   
    99   90   91 ar  
   100   90  100 1   
   101   91   92 1   
   102   92  101 1   
   103  102  103 1   
   104  102  110 1   
   105  103  104 1   
   106  103  106 1   
   107  103  111 1   
   108  104  105 2   
   109  104  121 1   
   110  106  107 1   
   111  106  108 1   
   112  106  112 1   
   113  107  109 1   
   114  107  113 1   
   115  107  114 1   
   116  108  115 1   
   117  108  116 1   
   118  108  117 1   
   119  109  118 1   
   120  109  119 1   
   121  109  120 1   
   122  121  122 1   
   123  121  127 1   
   124  122  123 1   
   125  122  125 1   
   126  122  128 1   
   127  123  124 2   
   128  123  132 1   
   129  125  126 1   
   130  125  129 1   
   131  125  130 1   
   132  126  131 1   
   133  132  133 1   
   134  132  137 1   
   135  133  134 1   
   136  133  136 1   
   137  133  138 1   
   138  134  135 2   
   139  134  142 1   
   140  136  139 1   
   141  136  140 1   
   142  136  141 1   
   143  142  143 1   
   144  142  147 1   
   145  143  144 1   
   146  143  146 1   
   147  143  148 1   
   148  144  145 2   
   149  144  152 1   
   150  146  149 1   
   151  146  150 1   
   152  146  151 1   
   153  152  153 1   
   154  152  161 1   
   155  153  154 1   
   156  153  156 1   
   157  153  162 1   
   158  154  155 2   
   159  154  167 1   
   160  156  157 1   
   161  156  163 1   
   162  156  164 1   
   163  157  158 1   
   164  157  165 1   
   165  157  166 1   
   166  158  159 1   
   167  158  160 1   
   168  167  168 1   
   169  167  172 1   
   170  168  169 1   
   171  168  170 1   
   172  168  171 1   
   173  174  175 1   
   174  174  176 1   
   175  177  178 1   
   176  177  179 1   
@<TRIPOS>SUBSTRUCTURE
     1 MOL         1 TEMP              0 ****  ****    0 ROOT
