@<TRIPOS>MOLECULE
MOL
  175   173     1     0     0
SMALL
resp


@<TRIPOS>ATOM
      1 C1          0.6560    3.7980    5.6170 c3        1 MOL     -0.315998
      2 C2         -0.0970    3.7570    4.3180 c         1 MOL      0.759162
      3 O1          0.6220    3.8440    3.3560 o         1 MOL     -0.568455
      4 H1          0.2800    4.6190    6.2280 hc        1 MOL      0.069653
      5 H2          0.5160    2.8560    6.1490 hc        1 MOL      0.069653
      6 H3          1.7170    3.9490    5.4180 hc        1 MOL      0.069653
      7 N1         -1.3750    3.6230    4.2240 n         1 MOL     -0.655044
      8 C3         -2.1380    3.4240    2.9800 c3        1 MOL      0.264402
      9 C4         -2.2080    4.6620    2.0540 c         1 MOL      0.568968
     10 O2         -2.2910    5.7760    2.5470 o         1 MOL     -0.560796
     11 C5         -3.5050    2.7840    3.2500 c3        1 MOL     -0.441070
     12 C6         -4.0830    2.0180    2.1100 c         1 MOL      0.807079
     13 O3         -5.0820    1.3100    2.3280 o         1 MOL     -0.684644
     14 O4         -3.5070    2.0060    1.0050 o         1 MOL     -0.684644
     15 H4         -1.9080    3.6210    5.0730 hn        1 MOL      0.315692
     16 H5         -1.6350    2.6260    2.4480 h1        1 MOL      0.014712
     17 H6         -4.2590    3.4780    3.6180 hc        1 MOL      0.100985
     18 H7         -3.2830    2.0830    4.0520 hc        1 MOL      0.100985
     19 N2         -2.2300    4.3920    0.6990 n         1 MOL     -0.539286
     20 C7         -2.3740    5.4120   -0.3700 c3        1 MOL      0.251042
     21 C8         -3.5150    5.2010   -1.3640 c         1 MOL      0.452838
     22 O5         -3.7900    6.0230   -2.1940 o         1 MOL     -0.569387
     23 C9         -1.0200    5.4130   -1.0470 c3        1 MOL     -0.129397
     24 H8         -2.0320    3.4730    0.3450 hn        1 MOL      0.334608
     25 H9         -2.4720    6.3690    0.1610 h1        1 MOL      0.004525
     26 H10        -0.7580    4.3990   -1.3410 hc        1 MOL      0.028300
     27 H11        -1.0250    6.1040   -1.8860 hc        1 MOL      0.028300
     28 H12        -0.2070    5.6290   -0.3630 hc        1 MOL      0.028300
     29 N3         -4.1250    4.0420   -1.3550 n         1 MOL     -0.406712
     30 C10        -5.0360    3.6080   -2.3900 c3        1 MOL      0.234538
     31 C11        -6.2610    2.8180   -1.9010 c         1 MOL      0.334003
     32 O6         -7.1910    2.7520   -2.7030 o         1 MOL     -0.522987
     33 C12        -4.2990    2.8430   -3.5470 c3        1 MOL     -0.086825
     34 C13        -3.5820    1.6160   -3.0520 c         1 MOL      0.750514
     35 O7         -2.6180    1.2880   -3.7390 o         1 MOL     -0.700905
     36 O8         -3.7710    1.0790   -1.9180 o         1 MOL     -0.700905
     37 H13        -3.8370    3.3300   -0.6940 hn        1 MOL      0.186369
     38 H14        -5.5020    4.4900   -2.8430 h1        1 MOL      0.038289
     39 H15        -3.6320    3.5440   -4.0560 hc        1 MOL      0.019233
     40 H16        -5.0450    2.6440   -4.3180 hc        1 MOL      0.019233
     41 N4         -6.2990    2.1020   -0.7290 n         1 MOL     -0.162163
     42 C14        -7.4110    1.1890   -0.4370 c3        1 MOL     -0.442911
     43 C15        -7.3990   -0.2480   -1.0100 c         1 MOL      0.532188
     44 O9         -8.3370   -0.9970   -1.0880 o         1 MOL     -0.579003
     45 H17        -5.4340    1.9590   -0.2350 hn        1 MOL      0.129725
     46 H18        -8.2720    1.6150   -0.9480 h1        1 MOL      0.179546
     47 H19        -7.5260    1.0090    0.6330 h1        1 MOL      0.179546
     48 N5         -6.3250   -0.5890   -1.7780 n         1 MOL     -0.076954
     49 C16        -6.1830   -1.8820   -2.3060 c3        1 MOL     -0.155050
     50 C17        -6.2170   -3.1210   -1.3540 c         1 MOL      0.592552
     51 O10        -6.5230   -4.2500   -1.7550 o         1 MOL     -0.575404
     52 C18        -4.9420   -1.8750   -3.2570 c3        1 MOL      0.015704
     53 C19        -3.5530   -1.9920   -2.6510 c         1 MOL      0.433496
     54 N6         -2.6110   -2.1810   -3.4800 n         1 MOL     -0.621669
     55 O11        -3.3230   -1.9280   -1.4820 o         1 MOL     -0.366901
     56 H20        -5.4960   -0.0060   -1.7400 hn        1 MOL      0.086935
     57 H21        -7.1050   -2.0140   -2.8480 h1        1 MOL      0.094482
     58 H22        -4.9770   -0.9890   -3.8970 hc        1 MOL     -0.001182
     59 H23        -5.1500   -2.7080   -3.9200 hc        1 MOL     -0.001182
     60 H24        -2.8080   -1.9910   -4.4530 hn        1 MOL      0.333631
     61 H25        -1.6700   -2.1910   -3.1230 hn        1 MOL      0.333631
     62 N7         -5.9960   -2.8600   -0.0500 n         1 MOL     -0.303472
     63 C20        -6.1460   -3.8330    1.0530 c3        1 MOL     -0.237815
     64 C21        -4.8210   -4.3770    1.5660 c         1 MOL      0.521748
     65 O12        -4.8640   -5.2090    2.4520 o         1 MOL     -0.573990
     66 H26        -5.8100   -1.9090    0.2440 hn        1 MOL      0.234822
     67 H27        -6.7350   -4.6690    0.6840 h1        1 MOL      0.121902
     68 H28        -6.6310   -3.4320    1.9470 h1        1 MOL      0.121902
     69 N8         -3.7000   -3.9820    0.8980 n         1 MOL     -0.153504
     70 C22        -2.3730   -4.5730    1.2960 c3        1 MOL     -0.215821
     71 C23        -1.3350   -3.4910    1.5360 c         1 MOL      0.490714
     72 O13        -1.4940   -2.3340    1.0420 o         1 MOL     -0.712496
     73 C24        -1.8610   -5.5590    0.2120 c3        1 MOL      0.528227
     74 C25        -2.7340   -6.7730    0.2460 c3        1 MOL     -0.419115
     75 O14        -1.9020   -4.9310   -1.0890 oh        1 MOL     -0.601965
     76 H29        -3.7440   -3.3890    0.0910 hn        1 MOL      0.154874
     77 H30        -2.5050   -5.2030    2.1760 h1        1 MOL      0.077639
     78 H31        -0.8170   -5.7840    0.4050 h1        1 MOL     -0.057441
     79 H32        -1.1810   -4.3040   -1.0340 ho        1 MOL      0.368926
     80 H33        -2.3720   -7.5260   -0.4590 hc        1 MOL      0.106688
     81 H34        -2.5780   -7.1930    1.2460 hc        1 MOL      0.106688
     82 H35        -3.7810   -6.5050    0.1380 hc        1 MOL      0.106688
     83 N9         -0.3170   -3.8150    2.2170 n         1 MOL     -0.227487
     84 C26         0.8780   -2.9460    2.2120 c3        1 MOL     -0.054422
     85 C27         1.6120   -3.2460    0.8990 c         1 MOL      0.310196
     86 O15         2.0400   -4.4040    0.6570 o         1 MOL     -0.553093
     87 C28         1.7730   -3.0910    3.4320 c3        1 MOL      0.253697
     88 C29         1.0940   -2.5920    4.7030 c3        1 MOL      0.097376
     89 C30         3.1100   -2.2240    3.2960 c3        1 MOL     -0.484418
     90 C31         1.4720   -3.4240    6.0010 c3        1 MOL     -0.279342
     91 H36        -0.1930   -4.7180    2.6610 hn        1 MOL      0.236898
     92 H37         0.5690   -1.8970    2.1610 h1        1 MOL      0.039059
     93 H38         2.0180   -4.1390    3.6360 hc        1 MOL     -0.027103
     94 H39         0.0320   -2.8160    4.5770 hc        1 MOL     -0.022885
     95 H40         1.2680   -1.5200    4.8400 hc        1 MOL     -0.022885
     96 H41         2.7730   -1.2640    2.9120 hc        1 MOL      0.115630
     97 H42         3.4980   -2.1130    4.3130 hc        1 MOL      0.115630
     98 H43         3.7640   -2.6440    2.5270 hc        1 MOL      0.115630
     99 H44         2.5510   -3.3460    6.1160 hc        1 MOL      0.064906
    100 H45         1.0220   -2.9250    6.8450 hc        1 MOL      0.064906
    101 H46         1.1720   -4.4630    5.8490 hc        1 MOL      0.064906
    102 N10         1.7830   -2.1570    0.1490 n         1 MOL     -0.002278
    103 C32         2.6220   -2.0350   -1.0810 c3        1 MOL      0.078495
    104 C33         4.0650   -1.5430   -0.7220 c         1 MOL      0.202037
    105 O16         4.2860   -0.8330    0.2460 o         1 MOL     -0.110628
    106 C34         1.9040   -1.2170   -2.1800 c3        1 MOL     -0.413825
    107 C35         0.4650   -1.5990   -2.5390 c         1 MOL      0.785601
    108 O17        -0.4370   -1.1410   -1.8130 o         1 MOL     -0.696096
    109 O18         0.2520   -2.4240   -3.4860 o         1 MOL     -0.696096
    110 H47         1.3010   -1.2820    0.3550 hn        1 MOL      0.201815
    111 H48         2.7530   -3.0810   -1.3840 h1        1 MOL      0.051215
    112 H49         2.4480   -1.1530   -3.1270 hc        1 MOL      0.121787
    113 H50         1.8400   -0.2600   -1.6620 hc        1 MOL      0.121787
    114 N11         5.1220   -1.7730   -1.5750 n         1 MOL     -0.460932
    115 C36         6.4930   -1.3340   -1.3650 c3        1 MOL      0.346903
    116 C37         6.7030    0.1910   -1.1980 c         1 MOL      0.345846
    117 O19         7.3980    0.5460   -0.2880 o         1 MOL     -0.462792
    118 C38         7.4660   -1.9070   -2.3710 c3        1 MOL     -0.398016
    119 C39         8.9330   -1.5580   -2.0310 ca        1 MOL      0.110589
    120 C40         9.6420   -2.3650   -1.0550 ca        1 MOL     -0.157731
    121 C41         9.5950   -0.4510   -2.5900 ca        1 MOL     -0.157731
    122 C42        11.0730   -2.0890   -0.8850 ca        1 MOL     -0.156454
    123 C43        10.9280   -0.2110   -2.2700 ca        1 MOL     -0.156454
    124 C44        11.6620   -1.0570   -1.4680 ca        1 MOL     -0.014060
    125 H51         4.8820   -2.4350   -2.2930 hn        1 MOL      0.279238
    126 H52         6.7040   -1.7600   -0.3790 h1        1 MOL      0.028589
    127 H53         7.2430   -1.4430   -3.3360 hc        1 MOL      0.119847
    128 H54         7.3490   -2.9900   -2.3320 hc        1 MOL      0.119847
    129 H55         9.2060   -3.1610   -0.4620 ha        1 MOL      0.128050
    130 H56         9.0340    0.2240   -3.2110 ha        1 MOL      0.128050
    131 H57        11.5080   -2.6020   -0.0460 ha        1 MOL      0.111170
    132 H58        11.5040    0.5820   -2.7140 ha        1 MOL      0.111170
    133 H59        12.7180   -0.8980   -1.3350 ha        1 MOL      0.071541
    134 N12         6.0630    1.0050   -2.0490 n         1 MOL     -0.084784
    135 C45         6.0850    2.4520   -1.8350 c3        1 MOL      0.041292
    136 C46         5.4520    2.9550   -0.4990 c         1 MOL      0.282188
    137 O20         5.8660    4.0250   -0.0540 o         1 MOL     -0.491121
    138 C47         5.2810    3.0190   -3.0220 c3        1 MOL     -0.152483
    139 C48         5.4200    1.9850   -4.1360 c3        1 MOL      0.015141
    140 C49         5.3300    0.6890   -3.2950 c3        1 MOL     -0.042595
    141 H60         7.1020    2.8350   -1.7800 h1        1 MOL      0.061640
    142 H61         4.2120    2.9540   -2.8110 hc        1 MOL      0.073072
    143 H62         5.5740    4.0600   -3.1840 hc        1 MOL      0.073072
    144 H63         4.6590    2.1280   -4.9130 hc        1 MOL      0.020840
    145 H64         6.3950    2.1080   -4.5970 hc        1 MOL      0.020840
    146 H65         4.2970    0.3990   -3.0770 h1        1 MOL      0.034275
    147 H66         5.7680   -0.1160   -3.8820 h1        1 MOL      0.034275
    148 N13         4.6000    2.1080    0.1220 n         1 MOL     -0.029053
    149 C50         4.0280    2.3740    1.4540 c3        1 MOL     -0.183590
    150 C51         4.9190    1.7360    2.5820 c         1 MOL      0.513777
    151 O21         5.0240    2.3620    3.6490 o         1 MOL     -0.564699
    152 C52         2.6010    1.7650    1.5010 c3        1 MOL      0.089336
    153 C53         1.6990    2.4130    0.3820 c3        1 MOL     -0.060923
    154 C54         0.4570    1.5300    0.2070 c         1 MOL      0.503757
    155 O22        -0.5360    1.9090   -0.4560 o         1 MOL     -0.644150
    156 O23         0.4310    0.4090    0.7060 o         1 MOL     -0.644150
    157 H67         4.3270    1.2340   -0.2860 hn        1 MOL      0.092806
    158 H68         3.9040    3.4490    1.6000 h1        1 MOL      0.116079
    159 H69         2.1450    1.9060    2.4750 hc        1 MOL      0.006128
    160 H70         2.7080    0.7070    1.2810 hc        1 MOL      0.006128
    161 H71         2.1740    2.5750   -0.5890 hc        1 MOL      0.038594
    162 H72         1.3510    3.3920    0.7270 hc        1 MOL      0.038594
    163 N14         5.4830    0.5470    2.3110 n         1 MOL     -0.135528
    164 C55         6.5250   -0.0930    3.1390 c3        1 MOL     -0.140466
    165 H73         6.5130    0.3430    4.1380 h1        1 MOL      0.063628
    166 H74         6.3300   -1.1620    3.2070 h1        1 MOL      0.063628
    167 H75         7.5020    0.0710    2.6840 h1        1 MOL      0.063628
    168 H76         5.1680    0.0340    1.4940 hn        1 MOL      0.003327
    169 Ca1        -2.2090   -0.0330   -0.1660 Ca        1 MOL      1.615795
    170 O24        -1.5880    0.1490    2.6330 oh        1 MOL     -0.668951
    171 H77        -0.6890    0.0120    2.3330 ho        1 MOL      0.343430
    172 H78        -1.5380    0.0760    3.5840 ho        1 MOL      0.343430
    173 O25        -4.3430   -0.7560    0.9880 oh        1 MOL     -0.668951
    174 H79        -4.7490    0.0520    1.2640 ho        1 MOL      0.343430
    175 H80        -4.4470   -1.3500    1.7310 ho        1 MOL      0.343430
@<TRIPOS>BOND
     1    1    2 1   
     2    1    4 1   
     3    1    5 1   
     4    1    6 1   
     5    2    3 2   
     6    2    7 1   
     7    7    8 1   
     8    7   15 1   
     9    8    9 1   
    10    8   11 1   
    11    8   16 1   
    12    9   10 2   
    13    9   19 1   
    14   11   12 1   
    15   11   17 1   
    16   11   18 1   
    17   12   13 1   
    18   12   14 1   
    19   19   20 1   
    20   19   24 1   
    21   20   21 1   
    22   20   23 1   
    23   20   25 1   
    24   21   22 2   
    25   21   29 1   
    26   23   26 1   
    27   23   27 1   
    28   23   28 1   
    29   29   30 1   
    30   29   37 1   
    31   30   31 1   
    32   30   33 1   
    33   30   38 1   
    34   31   32 2   
    35   31   41 1   
    36   33   34 1   
    37   33   39 1   
    38   33   40 1   
    39   34   35 1   
    40   34   36 1   
    41   41   42 1   
    42   41   45 1   
    43   42   43 1   
    44   42   46 1   
    45   42   47 1   
    46   43   44 2   
    47   43   48 1   
    48   48   49 1   
    49   48   56 1   
    50   49   50 1   
    51   49   52 1   
    52   49   57 1   
    53   50   51 2   
    54   50   62 1   
    55   52   53 1   
    56   52   58 1   
    57   52   59 1   
    58   53   54 1   
    59   53   55 2   
    60   54   60 1   
    61   54   61 1   
    62   62   63 1   
    63   62   66 1   
    64   63   64 1   
    65   63   67 1   
    66   63   68 1   
    67   64   65 2   
    68   64   69 1   
    69   69   70 1   
    70   69   76 1   
    71   70   71 1   
    72   70   73 1   
    73   70   77 1   
    74   71   72 2   
    75   71   83 1   
    76   73   74 1   
    77   73   75 1   
    78   73   78 1   
    79   74   80 1   
    80   74   81 1   
    81   74   82 1   
    82   75   79 1   
    83   83   84 1   
    84   83   91 1   
    85   84   85 1   
    86   84   87 1   
    87   84   92 1   
    88   85   86 2   
    89   85  102 1   
    90   87   88 1   
    91   87   89 1   
    92   87   93 1   
    93   88   90 1   
    94   88   94 1   
    95   88   95 1   
    96   89   96 1   
    97   89   97 1   
    98   89   98 1   
    99   90   99 1   
   100   90  100 1   
   101   90  101 1   
   102  102  103 1   
   103  102  110 1   
   104  103  104 1   
   105  103  106 1   
   106  103  111 1   
   107  104  105 2   
   108  104  114 1   
   109  106  107 1   
   110  106  112 1   
   111  106  113 1   
   112  107  108 1   
   113  107  109 1   
   114  114  115 1   
   115  114  125 1   
   116  115  116 1   
   117  115  118 1   
   118  115  126 1   
   119  116  117 2   
   120  116  134 1   
   121  118  119 1   
   122  118  127 1   
   123  118  128 1   
   124  119  120 ar  
   125  119  121 ar  
   126  120  122 ar  
   127  120  129 1   
   128  121  123 ar  
   129  121  130 1   
   130  122  124 ar  
   131  122  131 1   
   132  123  124 ar  
   133  123  132 1   
   134  124  133 1   
   135  134  135 1   
   136  134  140 1   
   137  135  136 1   
   138  135  138 1   
   139  135  141 1   
   140  136  137 2   
   141  136  148 1   
   142  138  139 1   
   143  138  142 1   
   144  138  143 1   
   145  139  140 1   
   146  139  144 1   
   147  139  145 1   
   148  140  146 1   
   149  140  147 1   
   150  148  149 1   
   151  148  157 1   
   152  149  150 1   
   153  149  152 1   
   154  149  158 1   
   155  150  151 2   
   156  150  163 1   
   157  152  153 1   
   158  152  159 1   
   159  152  160 1   
   160  153  154 1   
   161  153  161 1   
   162  153  162 1   
   163  154  155 1   
   164  154  156 1   
   165  163  164 1   
   166  163  168 1   
   167  164  165 1   
   168  164  166 1   
   169  164  167 1   
   170  170  171 1   
   171  170  172 1   
   172  173  174 1   
   173  173  175 1   
@<TRIPOS>SUBSTRUCTURE
     1 MOL         1 TEMP              0 ****  ****    0 ROOT
