@<TRIPOS>MOLECULE
MOL
  175   173     1     0     0
SMALL
resp


@<TRIPOS>ATOM
      1 C1          0.7120    4.0900    5.2210 c3        1 MOL     -0.392426
      2 C2         -0.0990    4.1620    3.8980 c         1 MOL      0.653512
      3 O1          0.5250    4.3530    2.8260 o         1 MOL     -0.542733
      4 H1          1.6910    3.6540    5.0240 hc        1 MOL      0.097859
      5 H2          0.8380    5.0940    5.6260 hc        1 MOL      0.097859
      6 H3          0.1780    3.4720    5.9430 hc        1 MOL      0.097859
      7 N1         -1.4130    3.8810    3.8670 n         1 MOL     -0.643024
      8 C3         -2.1660    3.6590    2.6210 c3        1 MOL      0.183404
      9 C4         -2.2020    4.8310    1.6310 c         1 MOL      0.609188
     10 O2         -2.4840    5.9780    1.9090 o         1 MOL     -0.588098
     11 C5         -3.5540    3.1520    2.8790 c3        1 MOL     -0.327724
     12 C6         -4.1150    2.2590    1.6410 c         1 MOL      0.646403
     13 O3         -5.2410    1.8900    1.8780 o         1 MOL     -0.608350
     14 O4         -3.4610    1.9650    0.6050 o         1 MOL     -0.608350
     15 H4         -1.8590    3.8150    4.7760 hn        1 MOL      0.327068
     16 H5         -1.5850    2.8910    2.0990 h1        1 MOL      0.080313
     17 H6         -4.1960    4.0270    3.0460 hc        1 MOL      0.083924
     18 H7         -3.5450    2.5900    3.8140 hc        1 MOL      0.083924
     19 N2         -2.0190    4.4380    0.3460 n         1 MOL     -0.687755
     20 C7         -2.3430    5.3670   -0.7480 c3        1 MOL      0.549455
     21 C8         -3.6980    5.1660   -1.5050 c         1 MOL      0.282185
     22 O5         -4.2180    6.0850   -2.1250 o         1 MOL     -0.552945
     23 C9         -1.1380    5.4300   -1.6890 c3        1 MOL     -0.328923
     24 H8         -1.6600    3.5190    0.1340 hn        1 MOL      0.347687
     25 H9         -2.4180    6.3660   -0.3200 h1        1 MOL     -0.023745
     26 H10        -1.3190    6.3090   -2.3200 hc        1 MOL      0.067532
     27 H11        -0.2220    5.7440   -1.1860 hc        1 MOL      0.067532
     28 H12        -1.0690    4.4470   -2.1470 hc        1 MOL      0.067532
     29 N3         -4.2560    3.9490   -1.5060 n         1 MOL     -0.243243
     30 C10        -5.3070    3.4440   -2.4410 c3        1 MOL      0.170691
     31 C11        -6.4430    2.5720   -1.9330 c         1 MOL      0.223058
     32 O6         -7.4640    2.3500   -2.5910 o         1 MOL     -0.541317
     33 C12        -4.6120    2.5490   -3.5140 c3        1 MOL     -0.201967
     34 C13        -3.5200    1.5860   -3.0770 c         1 MOL      0.703928
     35 O7         -3.7220    0.8000   -2.1640 o         1 MOL     -0.690763
     36 O8         -2.4140    1.6420   -3.6490 o         1 MOL     -0.690763
     37 H13        -3.7840    3.1940   -1.0280 hn        1 MOL      0.230537
     38 H14        -5.7410    4.3380   -2.8990 h1        1 MOL      0.076040
     39 H15        -4.2200    3.3150   -4.1850 hc        1 MOL      0.035842
     40 H16        -5.3620    1.9880   -4.0840 hc        1 MOL      0.035842
     41 N4         -6.2210    1.9550   -0.7580 n         1 MOL      0.028536
     42 C14        -7.3110    1.1020   -0.1690 c3        1 MOL     -0.166585
     43 C15        -7.3270   -0.3010   -0.6930 c         1 MOL      0.530735
     44 O9         -8.1650   -1.0790   -0.2420 o         1 MOL     -0.626816
     45 H17        -5.3660    2.0880   -0.2320 hn        1 MOL     -0.045331
     46 H18        -8.2650    1.6080   -0.3260 h1        1 MOL      0.105855
     47 H19        -7.2460    1.1190    0.9240 h1        1 MOL      0.105855
     48 N5         -6.4000   -0.7410   -1.5320 n         1 MOL     -0.346829
     49 C16        -6.2500   -2.0590   -2.1590 c3        1 MOL      0.029813
     50 C17        -6.1100   -3.2760   -1.1210 c         1 MOL      0.383319
     51 O10        -5.6180   -4.3440   -1.4520 o         1 MOL     -0.513764
     52 C18        -5.0760   -2.0170   -3.1250 c3        1 MOL     -0.229572
     53 C19        -3.6810   -2.1770   -2.4620 c         1 MOL      0.392580
     54 N6         -2.7420   -2.2770   -3.3550 n         1 MOL     -0.416150
     55 O11        -3.4040   -2.2280   -1.2630 o         1 MOL     -0.623239
     56 H20        -5.7320   -0.0410   -1.8360 hn        1 MOL      0.313972
     57 H21        -7.1420   -2.3180   -2.7110 h1        1 MOL      0.089307
     58 H22        -5.0920   -1.1140   -3.7310 hc        1 MOL      0.097513
     59 H23        -5.2350   -2.8450   -3.8120 hc        1 MOL      0.097513
     60 H24        -2.9670   -2.4240   -4.3240 hn        1 MOL      0.296299
     61 H25        -1.8010   -2.3340   -2.9940 hn        1 MOL      0.296299
     62 N7         -6.2930   -3.1240    0.1620 n         1 MOL     -0.095120
     63 C20        -6.2700   -4.1370    1.1670 c3        1 MOL     -0.365079
     64 C21        -4.8640   -4.6490    1.4940 c         1 MOL      0.568802
     65 O12        -4.7120   -5.6390    2.2050 o         1 MOL     -0.593610
     66 H26        -6.5130   -2.1580    0.3500 hn        1 MOL      0.226525
     67 H27        -6.7960   -5.0280    0.8150 h1        1 MOL      0.144634
     68 H28        -6.7700   -3.7260    2.0410 h1        1 MOL      0.144634
     69 N8         -3.8580   -3.9550    1.0770 n         1 MOL     -0.141586
     70 C22        -2.4260   -4.4570    1.3300 c3        1 MOL     -0.425427
     71 C23        -1.3200   -3.3690    1.4750 c         1 MOL      0.913766
     72 O13        -1.4770   -2.2450    1.0360 o         1 MOL     -0.678137
     73 C24        -1.9450   -5.3300    0.1410 c3        1 MOL      0.636389
     74 C25        -2.7420   -6.6070   -0.0550 c3        1 MOL     -0.457762
     75 O14        -1.9480   -4.6030   -1.1210 oh        1 MOL     -0.661687
     76 H29        -4.0360   -3.1300    0.5090 hn        1 MOL      0.140840
     77 H30        -2.4190   -5.1020    2.2160 h1        1 MOL      0.127350
     78 H31        -0.9390   -5.6340    0.4220 h1        1 MOL     -0.032324
     79 H32        -2.6090   -3.9130   -1.0150 ho        1 MOL      0.431850
     80 H33        -2.2000   -7.3080   -0.6940 hc        1 MOL      0.098176
     81 H34        -2.8600   -7.1050    0.9010 hc        1 MOL      0.098176
     82 H35        -3.7040   -6.3500   -0.5040 hc        1 MOL      0.098176
     83 N9         -0.2650   -3.6810    2.1810 n         1 MOL     -0.860464
     84 C26         0.9530   -2.7970    2.1000 c3        1 MOL      0.098258
     85 C27         1.6610   -3.1180    0.8110 c         1 MOL      0.447274
     86 O15         1.8550   -4.2640    0.4800 o         1 MOL     -0.534558
     87 C28         1.9430   -3.0100    3.3310 c3        1 MOL      0.185277
     88 C29         1.2010   -3.2930    4.6580 c3        1 MOL      0.242689
     89 C30         2.8650   -1.7710    3.4340 c3        1 MOL     -0.175713
     90 C31         2.0620   -3.7800    5.8420 c3        1 MOL     -0.365725
     91 H36        -0.2370   -4.5760    2.6360 hn        1 MOL      0.381692
     92 H37         0.5710   -1.7800    2.2090 h1        1 MOL      0.100259
     93 H38         2.5260   -3.9020    3.0870 hc        1 MOL     -0.026502
     94 H39         0.4870   -4.1050    4.5520 hc        1 MOL     -0.041715
     95 H40         0.6400   -2.4100    4.9580 hc        1 MOL     -0.041715
     96 H41         3.4950   -1.7350    2.5380 hc        1 MOL      0.015011
     97 H42         2.2470   -0.8770    3.4400 hc        1 MOL      0.015011
     98 H43         3.4870   -1.8190    4.3240 hc        1 MOL      0.015011
     99 H44         1.4250   -3.7130    6.7210 hc        1 MOL      0.074999
    100 H45         2.4590   -4.7620    5.5560 hc        1 MOL      0.074999
    101 H46         2.8790   -3.1060    6.0920 hc        1 MOL      0.074999
    102 N10         1.8600   -2.0520   -0.0250 n         1 MOL     -0.060735
    103 C32         2.7040   -1.9860   -1.2350 c3        1 MOL     -0.022484
    104 C33         4.1680   -1.4710   -0.9790 c         1 MOL      0.559912
    105 O16         4.4790   -1.0130    0.1390 o         1 MOL     -0.479013
    106 C34         1.8680   -1.1330   -2.1970 c3        1 MOL     -0.089756
    107 C35         0.4650   -1.5470   -2.3860 c         1 MOL      0.781479
    108 O17         0.1790   -2.3570   -3.2770 o         1 MOL     -0.699800
    109 O18        -0.5140   -0.9410   -1.8670 o         1 MOL     -0.699800
    110 H47         1.5010   -1.1850    0.3450 hn        1 MOL     -0.093874
    111 H48         2.6930   -2.9740   -1.6870 h1        1 MOL      0.072815
    112 H49         2.4350   -1.2740   -3.1080 hc        1 MOL      0.006145
    113 H50         1.9430   -0.0800   -1.9440 hc        1 MOL      0.006145
    114 N11         5.0650   -1.5190   -1.9680 n         1 MOL     -0.834524
    115 C36         6.5340   -1.3010   -1.7440 c3        1 MOL      0.755300
    116 C37         6.6870    0.1030   -1.1010 c         1 MOL      0.090654
    117 O19         7.2790    0.1130    0.0050 o         1 MOL     -0.503040
    118 C38         7.5160   -1.4970   -2.8970 c3        1 MOL     -0.441552
    119 C39         8.9620   -1.4830   -2.4500 ca        1 MOL      0.321572
    120 C40         9.8490   -0.7890   -3.2760 ca        1 MOL     -0.263905
    121 C41         9.3710   -2.2250   -1.4010 ca        1 MOL     -0.263905
    122 C42        11.2290   -0.7880   -2.9290 ca        1 MOL     -0.069686
    123 C43        10.7450   -2.2740   -1.1330 ca        1 MOL     -0.069686
    124 C44        11.6680   -1.5550   -1.8660 ca        1 MOL     -0.144977
    125 H51         4.7430   -1.7910   -2.8850 hn        1 MOL      0.381644
    126 H52         6.8230   -2.0390   -1.0000 h1        1 MOL     -0.007565
    127 H53         7.3900   -0.6780   -3.5980 hc        1 MOL      0.077750
    128 H54         7.2790   -2.5030   -3.2510 hc        1 MOL      0.077750
    129 H55         9.4540   -0.2300   -4.1130 ha        1 MOL      0.141413
    130 H56         8.7070   -2.8140   -0.7790 ha        1 MOL      0.141413
    131 H57        11.9000   -0.2200   -3.5430 ha        1 MOL      0.102155
    132 H58        11.0740   -2.8530   -0.2870 ha        1 MOL      0.102155
    133 H59        12.7270   -1.6210   -1.6350 ha        1 MOL      0.103317
    134 N12         6.1170    1.1900   -1.6280 n         1 MOL      0.023820
    135 C45         6.3820    2.5530   -1.0950 c3        1 MOL      0.048918
    136 C46         5.6780    2.7920    0.1890 c         1 MOL      0.250725
    137 O20         6.2050    3.6350    0.9210 o         1 MOL     -0.522041
    138 C47         5.8490    3.5600   -2.1250 c3        1 MOL     -0.016202
    139 C48         5.8680    2.6690   -3.3480 c3        1 MOL     -0.173269
    140 C49         5.3140    1.3020   -2.8580 c3        1 MOL     -0.001012
    141 H60         7.4650    2.6310   -1.0320 h1        1 MOL      0.088921
    142 H61         4.8200    3.8560   -1.9200 hc        1 MOL      0.052089
    143 H62         6.5480    4.3870   -2.0810 hc        1 MOL      0.052089
    144 H63         5.2280    3.1500   -4.0960 hc        1 MOL      0.047065
    145 H64         6.8880    2.4900   -3.6950 hc        1 MOL      0.047065
    146 H65         4.2850    1.2890   -2.5120 h1        1 MOL      0.060811
    147 H66         5.4660    0.4540   -3.5340 h1        1 MOL      0.060811
    148 N13         4.6990    2.0280    0.5500 n         1 MOL     -0.034458
    149 C50         3.9710    2.2220    1.7950 c3        1 MOL     -0.045336
    150 C51         4.7140    1.5190    2.9690 c         1 MOL      0.355701
    151 O21         4.7580    2.0090    4.0650 o         1 MOL     -0.535560
    152 C52         2.6130    1.5220    1.5770 c3        1 MOL     -0.033774
    153 C53         1.7410    2.1390    0.4570 c3        1 MOL     -0.163447
    154 C54         0.3780    1.4850    0.4170 c         1 MOL      0.747143
    155 O22        -0.5930    2.0160   -0.1620 o         1 MOL     -0.726811
    156 O23         0.2190    0.3610    0.9160 o         1 MOL     -0.726811
    157 H67         4.4140    1.2210    0.0120 hn        1 MOL      0.063202
    158 H68         3.8520    3.2930    1.9510 h1        1 MOL      0.110826
    159 H69         2.0510    1.5020    2.5010 hc        1 MOL      0.082598
    160 H70         2.8410    0.4890    1.2920 hc        1 MOL      0.082598
    161 H71         2.2140    1.9780   -0.5180 hc        1 MOL      0.069021
    162 H72         1.6750    3.2190    0.6140 hc        1 MOL      0.069021
    163 N14         5.4600    0.4460    2.6480 n         1 MOL      0.035968
    164 C55         6.4900   -0.0000    3.6470 c3        1 MOL     -0.157405
    165 H73         7.3060   -0.5000    3.1270 h1        1 MOL      0.065156
    166 H74         6.8770    0.8670    4.1810 h1        1 MOL      0.065156
    167 H75         6.0340   -0.6910    4.3560 h1        1 MOL      0.065156
    168 H76         5.2760    0.0270    1.7380 hn        1 MOL      0.108539
    169 Ca1        -2.2340   -0.0900   -0.2680 Ca        1 MOL      1.702908
    170 O24        -4.3490   -0.7010    1.2150 oh        1 MOL     -0.696393
    171 H77        -4.4380   -1.1380    2.0580 ho        1 MOL      0.348064
    172 H78        -4.9590    0.0410    1.2640 ho        1 MOL      0.348064
    173 O25        -1.6570    0.0660    2.7410 oh        1 MOL     -0.696393
    174 H79        -0.8020    0.2520    2.3510 ho        1 MOL      0.348064
    175 H80        -1.5240    0.2010    3.6770 ho        1 MOL      0.348064
@<TRIPOS>BOND
     1    1    2 1   
     2    1    4 1   
     3    1    5 1   
     4    1    6 1   
     5    2    3 2   
     6    2    7 1   
     7    7    8 1   
     8    7   15 1   
     9    8    9 1   
    10    8   11 1   
    11    8   16 1   
    12    9   10 2   
    13    9   19 1   
    14   11   12 1   
    15   11   17 1   
    16   11   18 1   
    17   12   13 1   
    18   12   14 1   
    19   19   20 1   
    20   19   24 1   
    21   20   21 1   
    22   20   23 1   
    23   20   25 1   
    24   21   22 2   
    25   21   29 1   
    26   23   26 1   
    27   23   27 1   
    28   23   28 1   
    29   29   30 1   
    30   29   37 1   
    31   30   31 1   
    32   30   33 1   
    33   30   38 1   
    34   31   32 2   
    35   31   41 1   
    36   33   34 1   
    37   33   39 1   
    38   33   40 1   
    39   34   35 1   
    40   34   36 1   
    41   41   42 1   
    42   41   45 1   
    43   42   43 1   
    44   42   46 1   
    45   42   47 1   
    46   43   44 2   
    47   43   48 1   
    48   48   49 1   
    49   48   56 1   
    50   49   50 1   
    51   49   52 1   
    52   49   57 1   
    53   50   51 2   
    54   50   62 1   
    55   52   53 1   
    56   52   58 1   
    57   52   59 1   
    58   53   54 1   
    59   53   55 2   
    60   54   60 1   
    61   54   61 1   
    62   62   63 1   
    63   62   66 1   
    64   63   64 1   
    65   63   67 1   
    66   63   68 1   
    67   64   65 2   
    68   64   69 1   
    69   69   70 1   
    70   69   76 1   
    71   70   71 1   
    72   70   73 1   
    73   70   77 1   
    74   71   72 2   
    75   71   83 1   
    76   73   74 1   
    77   73   75 1   
    78   73   78 1   
    79   74   80 1   
    80   74   81 1   
    81   74   82 1   
    82   75   79 1   
    83   83   84 1   
    84   83   91 1   
    85   84   85 1   
    86   84   87 1   
    87   84   92 1   
    88   85   86 2   
    89   85  102 1   
    90   87   88 1   
    91   87   89 1   
    92   87   93 1   
    93   88   90 1   
    94   88   94 1   
    95   88   95 1   
    96   89   96 1   
    97   89   97 1   
    98   89   98 1   
    99   90   99 1   
   100   90  100 1   
   101   90  101 1   
   102  102  103 1   
   103  102  110 1   
   104  103  104 1   
   105  103  106 1   
   106  103  111 1   
   107  104  105 2   
   108  104  114 1   
   109  106  107 1   
   110  106  112 1   
   111  106  113 1   
   112  107  108 1   
   113  107  109 1   
   114  114  115 1   
   115  114  125 1   
   116  115  116 1   
   117  115  118 1   
   118  115  126 1   
   119  116  117 2   
   120  116  134 1   
   121  118  119 1   
   122  118  127 1   
   123  118  128 1   
   124  119  120 ar  
   125  119  121 ar  
   126  120  122 ar  
   127  120  129 1   
   128  121  123 ar  
   129  121  130 1   
   130  122  124 ar  
   131  122  131 1   
   132  123  124 ar  
   133  123  132 1   
   134  124  133 1   
   135  134  135 1   
   136  134  140 1   
   137  135  136 1   
   138  135  138 1   
   139  135  141 1   
   140  136  137 2   
   141  136  148 1   
   142  138  139 1   
   143  138  142 1   
   144  138  143 1   
   145  139  140 1   
   146  139  144 1   
   147  139  145 1   
   148  140  146 1   
   149  140  147 1   
   150  148  149 1   
   151  148  157 1   
   152  149  150 1   
   153  149  152 1   
   154  149  158 1   
   155  150  151 2   
   156  150  163 1   
   157  152  153 1   
   158  152  159 1   
   159  152  160 1   
   160  153  154 1   
   161  153  161 1   
   162  153  162 1   
   163  154  155 1   
   164  154  156 1   
   165  163  164 1   
   166  163  168 1   
   167  164  165 1   
   168  164  166 1   
   169  164  167 1   
   170  170  171 1   
   171  170  172 1   
   172  173  174 1   
   173  173  175 1   
@<TRIPOS>SUBSTRUCTURE
     1 MOL         1 TEMP              0 ****  ****    0 ROOT
