@<TRIPOS>MOLECULE
MOL
  189   185     1     0     0
SMALL
resp


@<TRIPOS>ATOM
      1 C1          0.5930    1.4540    5.4360 c3        1 MOL     -0.289238
      2 C2         -0.1210    1.6310    4.1250 c         1 MOL      0.630243
      3 O1          0.3920    2.1050    3.1440 o         1 MOL     -0.567075
      4 H1          1.6380    1.7450    5.3220 hc        1 MOL      0.083494
      5 H2          0.1220    2.0790    6.1950 hc        1 MOL      0.083494
      6 H3          0.5390    0.4080    5.7410 hc        1 MOL      0.083494
      7 N1         -1.3850    1.1610    4.1060 n         1 MOL     -0.499927
      8 C3         -2.2570    1.2220    2.9780 c3        1 MOL      0.109526
      9 C4         -2.7350    2.7520    2.8000 c         1 MOL      0.458629
     10 O2         -3.8540    3.0830    3.1960 o         1 MOL     -0.548275
     11 C5         -3.5090    0.3310    3.1040 c3        1 MOL     -0.035948
     12 C6         -4.1780    0.1420    1.7100 c         1 MOL      0.527621
     13 O3         -3.6240    0.6350    0.7000 o         1 MOL     -0.608870
     14 O4         -5.2640   -0.5080    1.6450 o         1 MOL     -0.608870
     15 H4         -1.8610    0.7650    4.9070 hn        1 MOL      0.286211
     16 H5         -1.5900    1.0550    2.1350 h1        1 MOL     -0.008572
     17 H6         -4.2340    0.6410    3.8530 hc        1 MOL      0.029404
     18 H7         -3.1730   -0.6300    3.4980 hc        1 MOL      0.029404
     19 N2         -1.9260    3.6380    2.3000 n         1 MOL     -0.316602
     20 C7         -2.2820    5.0550    2.0060 c3        1 MOL     -0.052321
     21 C8         -3.2990    5.2700    0.8460 c         1 MOL      0.446018
     22 O5         -3.5380    6.3910    0.4790 o         1 MOL     -0.549672
     23 C9         -0.9500    5.7570    1.7810 c3        1 MOL     -0.207669
     24 C10         0.0420    5.0420    0.8540 c3        1 MOL      0.190039
     25 C11        -0.3800    5.0900   -0.6140 c3        1 MOL     -0.182452
     26 C12         0.5330    4.3410   -1.5410 c3        1 MOL      0.043050
     27 N3          0.1100    4.5780   -2.9430 n4        1 MOL     -0.326564
     28 H8         -0.9990    3.3400    2.0280 hn        1 MOL      0.331438
     29 H9         -2.7410    5.4430    2.9110 h1        1 MOL      0.129619
     30 H10        -0.4750    5.8730    2.7560 hc        1 MOL      0.069911
     31 H11        -1.1110    6.7330    1.3300 hc        1 MOL      0.069911
     32 H12         0.2460    4.0140    1.1530 hc        1 MOL     -0.015904
     33 H13         0.9300    5.6660    0.9500 hc        1 MOL     -0.015904
     34 H14        -0.3900    6.1500   -0.8570 hc        1 MOL      0.058750
     35 H15        -1.3900    4.6790   -0.6620 hc        1 MOL      0.058750
     36 H16         0.4970    3.3010   -1.2220 hx        1 MOL      0.045690
     37 H17         1.5630    4.6310   -1.3340 hx        1 MOL      0.045690
     38 H18         0.8640    4.3800   -3.5810 hn        1 MOL      0.291614
     39 H19        -0.6920    3.9720   -3.0610 hn        1 MOL      0.291614
     40 H20        -0.1950    5.5230   -3.1510 hn        1 MOL      0.291614
     41 N4         -3.7650    4.2230    0.1800 n         1 MOL     -0.204152
     42 C13        -4.8000    4.3350   -0.8870 c3        1 MOL      0.127556
     43 C14        -5.9990    3.4770   -0.6650 c         1 MOL      0.294894
     44 O6         -7.1370    3.8130   -1.0250 o         1 MOL     -0.526152
     45 C15        -4.1500    4.2050   -2.3390 c3        1 MOL     -0.325781
     46 C16        -3.0200    3.2310   -2.5230 c         1 MOL      0.904994
     47 O7         -3.0900    2.2580   -1.7620 o         1 MOL     -0.766979
     48 O8         -2.1510    3.3060   -3.4090 o         1 MOL     -0.766979
     49 H21        -3.4180    3.3810    0.6200 hn        1 MOL      0.130641
     50 H22        -5.1400    5.3720   -0.8610 h1        1 MOL      0.108858
     51 H23        -3.9700    5.1810   -2.7940 hc        1 MOL      0.076323
     52 H24        -4.9280    3.8150   -2.9980 hc        1 MOL      0.076323
     53 N5         -5.8950    2.4400    0.1190 n         1 MOL     -0.057187
     54 C17        -7.0560    1.7000    0.7110 c3        1 MOL     -0.069919
     55 C18        -7.6580    0.6910   -0.3140 c         1 MOL      0.452351
     56 O9         -8.8930    0.6240   -0.5060 o         1 MOL     -0.533142
     57 H25        -4.9630    2.2230    0.4330 hn        1 MOL      0.115578
     58 H26        -7.8600    2.3370    1.0670 h1        1 MOL      0.082244
     59 H27        -6.7040    1.2050    1.6160 h1        1 MOL      0.082244
     60 N6         -6.7370   -0.0330   -1.0400 n         1 MOL     -0.244899
     61 C19        -6.9360   -1.1730   -1.9790 c3        1 MOL     -0.094414
     62 C20        -6.8630   -2.4740   -1.2790 c         1 MOL      0.480501
     63 O10        -7.0170   -3.4880   -2.0080 o         1 MOL     -0.571816
     64 C21        -5.8580   -0.9650   -3.1490 c3        1 MOL     -0.077415
     65 C22        -4.3820   -1.0200   -2.7310 c         1 MOL      0.693969
     66 O11        -3.5190   -0.4280   -3.4360 o         1 MOL     -0.727311
     67 O12        -4.1130   -1.5680   -1.6490 o         1 MOL     -0.727311
     68 H28        -5.7650    0.1870   -0.9030 hn        1 MOL      0.186590
     69 H29        -7.9140   -1.0770   -2.4420 h1        1 MOL      0.129607
     70 H30        -6.0500    0.0120   -3.5970 hc        1 MOL      0.048717
     71 H31        -6.0690   -1.6270   -3.9890 hc        1 MOL      0.048717
     72 N7         -6.6530   -2.5380    0.0290 n         1 MOL     -0.250946
     73 C23        -6.6150   -3.8130    0.7610 c3        1 MOL     -0.229565
     74 C24        -5.3080   -4.6220    0.6070 c         1 MOL      0.592899
     75 O13        -5.3300   -5.6580    1.2080 o         1 MOL     -0.580389
     76 H32        -6.2700   -1.6640    0.3790 hn        1 MOL      0.229452
     77 H33        -7.2440   -4.5160    0.2140 h1        1 MOL      0.128069
     78 H34        -6.8600   -3.7410    1.8150 h1        1 MOL      0.128069
     79 N8         -4.2540   -4.1100    0.0320 n         1 MOL     -0.283655
     80 C25        -2.9950   -4.7210   -0.2790 c3        1 MOL     -0.164665
     81 C26        -1.8320   -3.7960    0.1060 c         1 MOL      0.575781
     82 O14        -1.9690   -2.5970   -0.1340 o         1 MOL     -0.638997
     83 C27        -2.8070   -5.0980   -1.7320 c3        1 MOL      0.429077
     84 C28        -3.8900   -6.1320   -2.0610 c3        1 MOL     -0.555603
     85 O15        -2.9910   -3.9900   -2.5700 oh        1 MOL     -0.581744
     86 H35        -4.2830   -3.1420   -0.2760 hn        1 MOL      0.293107
     87 H36        -2.9360   -5.6430    0.3110 h1        1 MOL      0.079637
     88 H37        -1.7690   -5.4020   -1.8910 h1        1 MOL     -0.014780
     89 H38        -3.3340   -3.2520   -2.0550 ho        1 MOL      0.381852
     90 H39        -3.7790   -7.0480   -1.4860 hc        1 MOL      0.147729
     91 H40        -4.9020   -5.7430   -1.9470 hc        1 MOL      0.147729
     92 H41        -3.8080   -6.3740   -3.1280 hc        1 MOL      0.147729
     93 N9         -0.6790   -4.3870    0.4400 n         1 MOL     -0.477755
     94 C29         0.4640   -3.5510    0.9610 c3        1 MOL      0.052866
     95 C30         1.8080   -3.9730    0.3320 c         1 MOL      0.508774
     96 O16         2.1170   -5.1300    0.1670 o         1 MOL     -0.556157
     97 C31         0.5300   -3.6270    2.5230 c3        1 MOL      0.002984
     98 C32        -0.7260   -2.9320    3.1640 c3        1 MOL      0.292567
     99 C33         1.9240   -3.1950    3.0900 c3        1 MOL     -0.246624
    100 C34        -0.7840   -3.2350    4.6170 c3        1 MOL     -0.202386
    101 H42        -0.6790   -5.3820    0.5480 hn        1 MOL      0.285523
    102 H43         0.2280   -2.5070    0.7570 h1        1 MOL      0.035342
    103 H44         0.3530   -4.6180    2.9350 hc        1 MOL      0.024211
    104 H45        -1.6350   -3.3160    2.7120 hc        1 MOL     -0.037272
    105 H46        -0.7090   -1.8680    2.9330 hc        1 MOL     -0.037272
    106 H47         1.9120   -2.8440    4.1210 hc        1 MOL      0.047746
    107 H48         2.5890   -4.0500    3.0180 hc        1 MOL      0.047746
    108 H49         2.4330   -2.3610    2.6050 hc        1 MOL      0.047746
    109 H50         0.0010   -2.7620    5.2080 hc        1 MOL      0.036139
    110 H51        -1.6930   -2.8070    5.0470 hc        1 MOL      0.036139
    111 H52        -0.9050   -4.3060    4.7750 hc        1 MOL      0.036139
    112 N10         2.5480   -3.0350   -0.1980 n         1 MOL     -0.131712
    113 C35         3.8540   -3.0740   -0.8750 c3        1 MOL      0.002468
    114 C36         5.0910   -2.7690   -0.0380 c         1 MOL      0.337746
    115 O17         5.0700   -2.1400    1.0420 o         1 MOL     -0.413490
    116 C37         3.8780   -2.2110   -2.1770 c3        1 MOL      0.239894
    117 C38         2.6370   -2.3500   -3.0650 c3        1 MOL     -0.416431
    118 O18         4.0520   -0.9050   -1.8020 oh        1 MOL     -0.593846
    119 H53         2.1560   -2.1030   -0.2520 hn        1 MOL      0.208921
    120 H54         4.0020   -4.0850   -1.2510 h1        1 MOL      0.051451
    121 H55         4.6810   -2.4400   -2.8740 h1        1 MOL      0.042563
    122 H56         3.4490   -0.3380   -2.2960 ho        1 MOL      0.426482
    123 H57         2.2720   -3.3650   -2.8690 hc        1 MOL      0.107925
    124 H58         1.8260   -1.7050   -2.7390 hc        1 MOL      0.107925
    125 H59         2.9330   -2.2550   -4.1080 hc        1 MOL      0.107925
    126 N11         6.2640   -3.1930   -0.4730 n         1 MOL     -0.188769
    127 C39         7.5800   -2.6910    0.0160 c3        1 MOL     -0.243999
    128 C40         7.7550   -1.1990    0.0210 c         1 MOL      0.520975
    129 O19         8.2730   -0.7110    1.0030 o         1 MOL     -0.512511
    130 C41         8.6510   -3.3160   -0.8310 c3        1 MOL      0.286174
    131 C42         8.6100   -4.7890   -0.7470 c3        1 MOL     -0.346639
    132 O20         8.6950   -2.9850   -2.2540 oh        1 MOL     -0.655946
    133 H60         6.2650   -3.8870   -1.2040 hn        1 MOL      0.219359
    134 H61         7.6860   -2.9730    1.0640 h1        1 MOL      0.189143
    135 H62         9.6420   -3.0750   -0.4500 h1        1 MOL      0.050106
    136 H63         9.4870   -3.4100   -2.5990 ho        1 MOL      0.423477
    137 H64         7.8440   -5.2450   -1.3650 hc        1 MOL      0.098917
    138 H65         9.5090   -5.2980   -1.0850 hc        1 MOL      0.098917
    139 H66         8.3700   -5.0120    0.2940 hc        1 MOL      0.098917
    140 N12         7.0660   -0.4080   -0.8080 n         1 MOL     -0.369670
    141 C43         6.9740    1.0820   -0.7030 c3        1 MOL     -0.039285
    142 C44         6.1110    1.5480    0.4470 c         1 MOL      0.475105
    143 O21         6.5700    2.2330    1.3070 o         1 MOL     -0.509859
    144 C45         6.7410    1.6420   -2.0980 c3        1 MOL      0.086794
    145 C46         6.8020    3.1410   -2.3210 c3        1 MOL     -0.190615
    146 C47         8.1800    3.7220   -2.2020 c3        1 MOL      0.112820
    147 C48         8.4360    4.9200   -3.1420 c3        1 MOL     -0.002675
    148 N13         9.8140    5.4300   -3.0540 n4        1 MOL     -0.297308
    149 H67         6.7510   -0.8910   -1.6460 hn        1 MOL      0.248663
    150 H68         7.9520    1.4710   -0.4190 h1        1 MOL      0.069670
    151 H69         5.7070    1.4670   -2.3760 hc        1 MOL      0.000248
    152 H70         7.3010    1.0810   -2.8490 hc        1 MOL      0.000248
    153 H71         6.1740    3.5690   -1.5360 hc        1 MOL      0.053070
    154 H72         6.4030    3.3590   -3.3150 hc        1 MOL      0.053070
    155 H73         8.8750    2.9330   -2.4950 hc        1 MOL      0.021323
    156 H74         8.4010    3.9300   -1.1540 hc        1 MOL      0.021323
    157 H75         7.8010    5.7450   -2.8100 hx        1 MOL      0.088756
    158 H76         8.3170    4.7710   -4.2130 hx        1 MOL      0.088756
    159 H77        10.0770    5.7000   -2.1150 hn        1 MOL      0.301770
    160 H78        10.4980    4.7530   -3.3610 hn        1 MOL      0.301770
    161 H79         9.8400    6.2470   -3.6450 hn        1 MOL      0.301770
    162 N14         4.8870    1.0500    0.5120 n         1 MOL     -0.243179
    163 C49         3.9900    1.3050    1.6450 c3        1 MOL     -0.273561
    164 C50         4.5800    0.8450    2.9760 c         1 MOL      0.508259
    165 O22         4.1810    1.3630    3.9990 o         1 MOL     -0.539270
    166 C51         2.6860    0.5800    1.3960 c3        1 MOL      0.162982
    167 C52         1.8440    1.4020    0.4030 c3        1 MOL     -0.115761
    168 C53         0.4720    0.8480    0.2060 c         1 MOL      0.822226
    169 O23        -0.5090    1.5630    0.1020 o         1 MOL     -0.767947
    170 O24         0.3190   -0.3190   -0.2170 o         1 MOL     -0.767947
    171 H80         4.6070    0.5730   -0.3270 hn        1 MOL      0.220259
    172 H81         3.7930    2.3780    1.6300 h1        1 MOL      0.161435
    173 H82         2.1510    0.4080    2.3260 hc        1 MOL      0.008762
    174 H83         2.8500   -0.4220    0.9890 hc        1 MOL      0.008762
    175 H84         2.3580    1.4170   -0.5600 hc        1 MOL     -0.033718
    176 H85         1.7010    2.4160    0.7920 hc        1 MOL     -0.033718
    177 N15         5.5100   -0.1320    3.0350 n         1 MOL     -0.106593
    178 C54         6.1360   -0.6660    4.2830 c3        1 MOL     -0.281778
    179 H86         7.2110   -0.4920    4.2530 h1        1 MOL      0.109672
    180 H87         5.7090   -0.1600    5.1500 h1        1 MOL      0.109672
    181 H88         5.9450   -1.7370    4.3570 h1        1 MOL      0.109672
    182 H89         5.5680   -0.6790    2.1860 hn        1 MOL      0.188281
    183 Ca1        -1.9650    0.0330   -1.1960 Ca        1 MOL      1.789694
    184 O25        -0.8480   -2.1620   -2.9290 oh        1 MOL     -0.774155
    185 H90        -1.4260   -2.9080   -3.0970 ho        1 MOL      0.376290
    186 H91        -0.2000   -2.2000   -3.6230 ho        1 MOL      0.376290
    187 O26        -0.1330    0.7280   -2.8870 oh        1 MOL     -0.774155
    188 H92         0.6470    1.2300   -3.1330 ho        1 MOL      0.376290
    189 H93        -0.2270    0.0770   -3.5810 ho        1 MOL      0.376290
@<TRIPOS>BOND
     1    1    2 1   
     2    1    4 1   
     3    1    5 1   
     4    1    6 1   
     5    2    3 2   
     6    2    7 1   
     7    7    8 1   
     8    7   15 1   
     9    8    9 1   
    10    8   11 1   
    11    8   16 1   
    12    9   10 2   
    13    9   19 1   
    14   11   12 1   
    15   11   17 1   
    16   11   18 1   
    17   12   13 1   
    18   12   14 1   
    19   19   20 1   
    20   19   28 1   
    21   20   21 1   
    22   20   23 1   
    23   20   29 1   
    24   21   22 2   
    25   21   41 1   
    26   23   24 1   
    27   23   30 1   
    28   23   31 1   
    29   24   25 1   
    30   24   32 1   
    31   24   33 1   
    32   25   26 1   
    33   25   34 1   
    34   25   35 1   
    35   26   27 1   
    36   26   36 1   
    37   26   37 1   
    38   27   38 1   
    39   27   39 1   
    40   27   40 1   
    41   41   42 1   
    42   41   49 1   
    43   42   43 1   
    44   42   45 1   
    45   42   50 1   
    46   43   44 2   
    47   43   53 1   
    48   45   46 1   
    49   45   51 1   
    50   45   52 1   
    51   46   47 1   
    52   46   48 1   
    53   53   54 1   
    54   53   57 1   
    55   54   55 1   
    56   54   58 1   
    57   54   59 1   
    58   55   56 2   
    59   55   60 1   
    60   60   61 1   
    61   60   68 1   
    62   61   62 1   
    63   61   64 1   
    64   61   69 1   
    65   62   63 2   
    66   62   72 1   
    67   64   65 1   
    68   64   70 1   
    69   64   71 1   
    70   65   66 1   
    71   65   67 1   
    72   72   73 1   
    73   72   76 1   
    74   73   74 1   
    75   73   77 1   
    76   73   78 1   
    77   74   75 2   
    78   74   79 1   
    79   79   80 1   
    80   79   86 1   
    81   80   81 1   
    82   80   83 1   
    83   80   87 1   
    84   81   82 2   
    85   81   93 1   
    86   83   84 1   
    87   83   85 1   
    88   83   88 1   
    89   84   90 1   
    90   84   91 1   
    91   84   92 1   
    92   85   89 1   
    93   93   94 1   
    94   93  101 1   
    95   94   95 1   
    96   94   97 1   
    97   94  102 1   
    98   95   96 2   
    99   95  112 1   
   100   97   98 1   
   101   97   99 1   
   102   97  103 1   
   103   98  100 1   
   104   98  104 1   
   105   98  105 1   
   106   99  106 1   
   107   99  107 1   
   108   99  108 1   
   109  100  109 1   
   110  100  110 1   
   111  100  111 1   
   112  112  113 1   
   113  112  119 1   
   114  113  114 1   
   115  113  116 1   
   116  113  120 1   
   117  114  115 2   
   118  114  126 1   
   119  116  117 1   
   120  116  118 1   
   121  116  121 1   
   122  117  123 1   
   123  117  124 1   
   124  117  125 1   
   125  118  122 1   
   126  126  127 1   
   127  126  133 1   
   128  127  128 1   
   129  127  130 1   
   130  127  134 1   
   131  128  129 2   
   132  128  140 1   
   133  130  131 1   
   134  130  132 1   
   135  130  135 1   
   136  131  137 1   
   137  131  138 1   
   138  131  139 1   
   139  132  136 1   
   140  140  141 1   
   141  140  149 1   
   142  141  142 1   
   143  141  144 1   
   144  141  150 1   
   145  142  143 2   
   146  142  162 1   
   147  144  145 1   
   148  144  151 1   
   149  144  152 1   
   150  145  146 1   
   151  145  153 1   
   152  145  154 1   
   153  146  147 1   
   154  146  155 1   
   155  146  156 1   
   156  147  148 1   
   157  147  157 1   
   158  147  158 1   
   159  148  159 1   
   160  148  160 1   
   161  148  161 1   
   162  162  163 1   
   163  162  171 1   
   164  163  164 1   
   165  163  166 1   
   166  163  172 1   
   167  164  165 2   
   168  164  177 1   
   169  166  167 1   
   170  166  173 1   
   171  166  174 1   
   172  167  168 1   
   173  167  175 1   
   174  167  176 1   
   175  168  169 1   
   176  168  170 1   
   177  177  178 1   
   178  177  182 1   
   179  178  179 1   
   180  178  180 1   
   181  178  181 1   
   182  184  185 1   
   183  184  186 1   
   184  187  188 1   
   185  187  189 1   
@<TRIPOS>SUBSTRUCTURE
     1 MOL         1 TEMP              0 ****  ****    0 ROOT
