@<TRIPOS>MOLECULE
MOL
  183   181     1     0     0
SMALL
resp


@<TRIPOS>ATOM
      1 C1         -1.1300    1.0120    6.8360 c3        1 MOL     -0.338930
      2 C2         -1.3750    1.0420    5.3130 c         1 MOL      0.792290
      3 O1         -0.4700    1.4190    4.5920 o         1 MOL     -0.626904
      4 H1         -1.2560    2.0150    7.2430 hc        1 MOL      0.078636
      5 H2         -1.8460    0.3380    7.3070 hc        1 MOL      0.078636
      6 H3         -0.1170    0.6640    7.0350 hc        1 MOL      0.078636
      7 N1         -2.5570    0.7260    4.7470 n         1 MOL     -0.740046
      8 C3         -2.9830    0.9710    3.3720 c3        1 MOL      0.365135
      9 C4         -3.2060    2.4750    3.1140 c         1 MOL      0.427537
     10 O2         -3.7820    3.2150    3.9560 o         1 MOL     -0.585864
     11 C5         -4.2080    0.1680    3.0330 c3        1 MOL     -0.166238
     12 C6         -4.6530    0.2390    1.5760 c         1 MOL      0.734353
     13 O3         -5.8490   -0.0810    1.2670 o         1 MOL     -0.658392
     14 O4         -3.8490    0.6770    0.7290 o         1 MOL     -0.658392
     15 H4         -3.3170    0.4130    5.3400 hn        1 MOL      0.320410
     16 H5         -2.2640    0.5000    2.7160 h1        1 MOL      0.057911
     17 H6         -5.0820    0.4270    3.6250 hc        1 MOL      0.000971
     18 H7         -3.9710   -0.8740    3.2380 hc        1 MOL      0.000971
     19 N2         -2.5580    2.9810    2.0460 n         1 MOL     -0.175800
     20 C7         -2.5950    4.4020    1.6120 c3        1 MOL      0.097101
     21 C8         -3.4220    4.6010    0.3050 c         1 MOL      0.391651
     22 O5         -3.7750    5.7380   -0.0230 o         1 MOL     -0.563860
     23 C9         -1.1550    4.9750    1.7460 c3        1 MOL      0.123991
     24 C10        -0.1510    4.4500    2.8510 c3        1 MOL      0.037417
     25 C11        -1.3420    6.5410    2.0720 c3        1 MOL     -0.208009
     26 C12         1.2280    5.1360    2.7610 c3        1 MOL     -0.212061
     27 H8         -2.0130    2.3960    1.4380 hn        1 MOL     -0.000522
     28 H9         -3.2480    4.8810    2.3520 h1        1 MOL      0.022976
     29 H10        -0.6640    4.9310    0.7770 hc        1 MOL      0.040644
     30 H11         0.2020    3.4430    2.6120 hc        1 MOL      0.037959
     31 H12        -0.5510    4.5760    3.8550 hc        1 MOL      0.037959
     32 H13        -2.0960    6.9510    1.4050 hc        1 MOL      0.033020
     33 H14        -1.5460    6.8260    3.1090 hc        1 MOL      0.033020
     34 H15        -0.4070    7.0390    1.8300 hc        1 MOL      0.033020
     35 H16         1.4200    5.2830    1.6940 hc        1 MOL      0.035502
     36 H17         1.2530    6.1460    3.1710 hc        1 MOL      0.035502
     37 H18         1.9060    4.4380    3.2440 hc        1 MOL      0.035502
     38 N3         -3.5540    3.6090   -0.5830 n         1 MOL     -0.078281
     39 C13        -4.3940    3.7260   -1.7740 c3        1 MOL      0.014011
     40 C14        -5.6850    2.8600   -1.8220 c         1 MOL      0.471402
     41 O6         -6.2190    2.5830   -2.8460 o         1 MOL     -0.437005
     42 C15        -3.6260    3.6770   -3.0840 c3        1 MOL     -0.022908
     43 C16        -2.5890    2.5870   -3.3360 c         1 MOL      0.684668
     44 O7         -2.7500    1.5980   -2.6750 o         1 MOL     -0.699846
     45 O8         -1.8170    2.7020   -4.3500 o         1 MOL     -0.699846
     46 H19        -3.2340    2.7190   -0.2160 hn        1 MOL     -0.017290
     47 H20        -4.7870    4.7400   -1.7840 h1        1 MOL      0.060466
     48 H21        -3.0360    4.5940   -3.0980 hc        1 MOL     -0.013212
     49 H22        -4.4090    3.8030   -3.8290 hc        1 MOL     -0.013212
     50 N4         -6.2300    2.5440   -0.5680 n         1 MOL     -0.422332
     51 C17        -7.5840    2.0140   -0.3440 c3        1 MOL     -0.073538
     52 C18        -7.9160    0.7670   -1.1640 c         1 MOL      0.450728
     53 O9         -8.9500    0.7680   -1.7830 o         1 MOL     -0.582911
     54 H23        -5.7180    2.8730    0.2370 hn        1 MOL      0.268647
     55 H24        -8.3230    2.7770   -0.5780 h1        1 MOL      0.066767
     56 H25        -7.5920    1.7700    0.7110 h1        1 MOL      0.066767
     57 N5         -7.0440   -0.2000   -1.2160 n         1 MOL     -0.151231
     58 C19        -7.2660   -1.4310   -1.9730 c3        1 MOL     -0.023514
     59 C20        -7.2990   -2.7430   -1.1510 c         1 MOL      0.334601
     60 O10        -7.6230   -3.8540   -1.6150 o         1 MOL     -0.554520
     61 C21        -6.2490   -1.4940   -3.1100 c3        1 MOL      0.015735
     62 C22        -4.7750   -1.4380   -2.5900 c         1 MOL      0.606357
     63 O11        -3.7910   -1.1230   -3.3040 o         1 MOL     -0.705841
     64 O12        -4.5080   -1.7160   -1.4170 o         1 MOL     -0.705841
     65 H26        -6.1320   -0.1360   -0.7740 hn        1 MOL      0.178315
     66 H27        -8.1690   -1.3650   -2.5770 h1        1 MOL      0.083666
     67 H28        -6.3290   -0.7800   -3.9290 hc        1 MOL      0.009294
     68 H29        -6.3460   -2.4850   -3.5580 hc        1 MOL      0.009294
     69 N6         -6.9350   -2.6130    0.1220 n         1 MOL     -0.053236
     70 C23        -6.9760   -3.6780    1.1390 c3        1 MOL     -0.119098
     71 C24        -5.6090   -4.3690    1.3300 c         1 MOL      0.582810
     72 O13        -5.5520   -5.3630    2.0560 o         1 MOL     -0.599025
     73 H30        -6.6640   -1.6760    0.4040 hn        1 MOL      0.089808
     74 H31        -7.6840   -4.4790    0.9000 h1        1 MOL      0.065728
     75 H32        -7.3440   -3.2090    2.0590 h1        1 MOL      0.065728
     76 N7         -4.5000   -3.8800    0.7410 n         1 MOL     -0.329420
     77 C25        -3.2010   -4.4390    0.9610 c3        1 MOL     -0.029597
     78 C26        -2.1530   -3.3470    1.1500 c         1 MOL      0.810458
     79 O14        -2.3850   -2.1760    0.8890 o         1 MOL     -0.768958
     80 C27        -2.9260   -5.3840   -0.2090 c3        1 MOL     -0.072041
     81 C28        -3.1700   -4.8570   -1.5840 c3        1 MOL     -0.066910
     82 C29        -2.0690   -3.9400   -2.2090 c         1 MOL      0.571112
     83 N8         -1.5870   -4.1840   -3.4140 n         1 MOL     -0.765181
     84 O15        -1.5200   -3.0100   -1.6490 o         1 MOL     -0.505084
     85 H33        -4.6080   -3.1480    0.0560 hn        1 MOL      0.247286
     86 H34        -3.0870   -4.9640    1.9020 h1        1 MOL      0.049628
     87 H35        -3.5300   -6.2700   -0.0480 hc        1 MOL      0.027919
     88 H36        -1.8990   -5.7460   -0.1650 hc        1 MOL      0.027919
     89 H37        -4.1850   -4.5620   -1.8480 hc        1 MOL      0.042559
     90 H38        -3.0650   -5.6910   -2.2670 hc        1 MOL      0.042559
     91 H39        -1.9630   -4.9310   -3.9780 hn        1 MOL      0.353245
     92 H40        -1.0070   -3.4860   -3.8610 hn        1 MOL      0.353245
     93 N9         -0.9860   -3.7670    1.6540 n         1 MOL     -0.590707
     94 C30         0.1680   -2.9190    1.7470 c3        1 MOL      0.309283
     95 C31         1.2100   -3.3710    0.7760 c         1 MOL      0.371994
     96 O16         1.8290   -4.4160    0.9740 o         1 MOL     -0.591560
     97 C32         0.8730   -2.8850    3.1650 c3        1 MOL      0.227671
     98 C33         2.1680   -1.9960    3.3170 c3        1 MOL     -0.250075
     99 C34        -0.0600   -2.3540    4.1980 c3        1 MOL     -0.250075
    100 H41        -0.9420   -4.7490    1.8670 hn        1 MOL      0.283017
    101 H42        -0.0770   -1.8810    1.5710 h1        1 MOL      0.072986
    102 H43         1.0660   -3.9330    3.4060 hc        1 MOL     -0.052845
    103 H44         2.6650   -2.1660    4.2720 hc        1 MOL      0.042391
    104 H45         2.9070   -2.2830    2.5640 hc        1 MOL      0.042391
    105 H46         1.9030   -0.9700    3.0930 hc        1 MOL      0.042391
    106 H47        -0.2660   -1.3020    4.0070 hc        1 MOL      0.042391
    107 H48        -1.0380   -2.8140    4.1590 hc        1 MOL      0.042391
    108 H49         0.3700   -2.4550    5.1960 hc        1 MOL      0.042391
    109 N10         1.5270   -2.5740   -0.2560 n         1 MOL     -0.202585
    110 C35         2.6850   -2.7370   -1.1710 c3        1 MOL      0.176863
    111 C36         3.9670   -2.1430   -0.5340 c         1 MOL      0.308683
    112 O17         3.8950   -1.3380    0.4150 o         1 MOL     -0.197279
    113 C37         2.2800   -2.1080   -2.5060 c3        1 MOL     -0.175120
    114 C38         2.8330   -0.7110   -2.6900 c         1 MOL      0.599936
    115 N11         2.0340    0.2530   -2.2760 n         1 MOL     -0.632024
    116 O18         3.9100   -0.4740   -3.2180 o         1 MOL     -0.612838
    117 H50         1.1800   -1.6460   -0.1090 hn        1 MOL     -0.068635
    118 H51         2.8430   -3.8020   -1.3550 h1        1 MOL      0.048533
    119 H52         1.2010   -2.0450   -2.5840 hc        1 MOL      0.053471
    120 H53         2.7090   -2.7850   -3.2340 hc        1 MOL      0.053471
    121 H54         1.1180    0.0240   -1.9190 hn        1 MOL      0.345966
    122 H55         2.2990    1.1450   -2.6640 hn        1 MOL      0.345966
    123 N12         5.1920   -2.2440   -1.1210 n         1 MOL     -0.554431
    124 C39         6.4830   -1.8560   -0.5620 c3        1 MOL      0.133072
    125 C40         6.6970   -0.3560   -0.4790 c         1 MOL      0.740003
    126 O19         7.2650    0.0970    0.5270 o         1 MOL     -0.550399
    127 C41         7.5650   -2.6630   -1.3410 c3        1 MOL     -0.052814
    128 C42         8.9500   -2.4210   -0.8100 ca        1 MOL      0.096437
    129 C43         9.3490   -2.9390    0.4780 ca        1 MOL     -0.330666
    130 C44         9.8380   -1.5450   -1.4240 ca        1 MOL     -0.330666
    131 C45        10.6700   -2.6740    0.9420 ca        1 MOL     -0.020282
    132 C46        11.0560   -1.1170   -0.8630 ca        1 MOL     -0.020282
    133 C47        11.5610   -1.7910    0.2780 ca        1 MOL      0.111174
    134 O20        12.7650   -1.4400    0.8400 oh        1 MOL     -0.503953
    135 H56         5.2130   -2.8210   -1.9510 hn        1 MOL      0.283557
    136 H57         6.3700   -2.2110    0.4610 h1        1 MOL      0.079774
    137 H58         7.4980   -2.4570   -2.4130 hc        1 MOL      0.033517
    138 H59         7.4390   -3.7340   -1.2260 hc        1 MOL      0.033517
    139 H60         8.6950   -3.5830    1.0550 ha        1 MOL      0.163988
    140 H61         9.5630   -1.0930   -2.3660 ha        1 MOL      0.163988
    141 H62        10.9880   -3.2980    1.7660 ha        1 MOL      0.086689
    142 H63        11.6370   -0.3820   -1.4060 ha        1 MOL      0.086689
    143 H64        13.3270   -0.8160    0.3720 ho        1 MOL      0.389278
    144 N13         6.2620    0.3720   -1.4980 n         1 MOL     -0.710302
    145 C48         6.1860    1.8120   -1.4230 c3        1 MOL      0.081180
    146 C49         5.3880    2.2190   -0.1780 c         1 MOL      0.223714
    147 O21         5.6150    3.3070    0.3170 o         1 MOL     -0.518706
    148 C50         5.5210    2.2890   -2.7080 c3        1 MOL      0.059603
    149 C51         5.5550    3.8040   -2.9030 c3        1 MOL     -0.413927
    150 C52         5.0980    4.1790   -4.2840 c         1 MOL      0.753577
    151 O22         5.3090    5.3090   -4.8100 o         1 MOL     -0.735281
    152 O23         4.2780    3.4390   -4.9200 o         1 MOL     -0.735281
    153 H65         5.9190   -0.2000   -2.2650 hn        1 MOL      0.363108
    154 H66         7.1920    2.1870   -1.2680 h1        1 MOL      0.092991
    155 H67         4.4390    2.1480   -2.6720 hc        1 MOL      0.054605
    156 H68         5.8260    1.7860   -3.6230 hc        1 MOL      0.054605
    157 H69         6.6170    4.0390   -2.8550 hc        1 MOL      0.084376
    158 H70         4.9830    4.3000   -2.1220 hc        1 MOL      0.084376
    159 N14         4.4000    1.4990    0.3420 n         1 MOL     -0.008842
    160 C53         3.6000    1.9210    1.5580 c3        1 MOL      0.089939
    161 C54         4.3300    1.4080    2.7820 c         1 MOL      0.407665
    162 O24         4.1920    2.0220    3.8500 o         1 MOL     -0.554999
    163 C55         2.2150    1.3860    1.5330 c3        1 MOL      0.241617
    164 C56         1.3010    1.9490    0.3180 c3        1 MOL     -0.143416
    165 C57         0.1240    1.0150    0.0280 c         1 MOL      0.539878
    166 O25        -1.0030    1.5790   -0.1220 o         1 MOL     -0.605466
    167 O26         0.2880   -0.2210   -0.2380 o         1 MOL     -0.605466
    168 H71         4.0070    0.7570   -0.2220 hn        1 MOL      0.045718
    169 H72         3.4850    3.0000    1.6190 h1        1 MOL      0.040601
    170 H73         1.7640    1.6310    2.4960 hc        1 MOL     -0.009993
    171 H74         2.2190    0.3080    1.4070 hc        1 MOL     -0.009993
    172 H75         1.9820    1.9560   -0.5360 hc        1 MOL      0.069105
    173 H76         1.0990    3.0020    0.4820 hc        1 MOL      0.069105
    174 N15         5.1470    0.3100    2.6440 n         1 MOL     -0.045336
    175 C58         6.0820   -0.2330    3.6870 c3        1 MOL     -0.280774
    176 H77         6.6790    0.5820    4.0980 h1        1 MOL      0.098238
    177 H78         5.5050   -0.7000    4.4860 h1        1 MOL      0.098238
    178 H79         6.7420   -0.9730    3.2350 h1        1 MOL      0.098238
    179 H80         5.0610   -0.2200    1.7880 hn        1 MOL      0.001870
    180 Ca1        -2.3550   -0.4460   -1.0970 Ca        1 MOL      1.760198
    181 O27        -0.7910   -0.3650   -3.2940 oh        1 MOL     -0.839295
    182 H81        -0.3370   -0.7180   -4.0620 ho        1 MOL      0.400664
    183 H82        -1.2940    0.3730   -3.6320 ho        1 MOL      0.400664
@<TRIPOS>BOND
     1    1    2 1   
     2    1    4 1   
     3    1    5 1   
     4    1    6 1   
     5    2    3 2   
     6    2    7 1   
     7    7    8 1   
     8    7   15 1   
     9    8    9 1   
    10    8   11 1   
    11    8   16 1   
    12    9   10 2   
    13    9   19 1   
    14   11   12 1   
    15   11   17 1   
    16   11   18 1   
    17   12   13 1   
    18   12   14 1   
    19   19   20 1   
    20   19   27 1   
    21   20   21 1   
    22   20   23 1   
    23   20   28 1   
    24   21   22 2   
    25   21   38 1   
    26   23   24 1   
    27   23   25 1   
    28   23   29 1   
    29   24   26 1   
    30   24   30 1   
    31   24   31 1   
    32   25   32 1   
    33   25   33 1   
    34   25   34 1   
    35   26   35 1   
    36   26   36 1   
    37   26   37 1   
    38   38   39 1   
    39   38   46 1   
    40   39   40 1   
    41   39   42 1   
    42   39   47 1   
    43   40   41 2   
    44   40   50 1   
    45   42   43 1   
    46   42   48 1   
    47   42   49 1   
    48   43   44 1   
    49   43   45 1   
    50   50   51 1   
    51   50   54 1   
    52   51   52 1   
    53   51   55 1   
    54   51   56 1   
    55   52   53 2   
    56   52   57 1   
    57   57   58 1   
    58   57   65 1   
    59   58   59 1   
    60   58   61 1   
    61   58   66 1   
    62   59   60 2   
    63   59   69 1   
    64   61   62 1   
    65   61   67 1   
    66   61   68 1   
    67   62   63 1   
    68   62   64 1   
    69   69   70 1   
    70   69   73 1   
    71   70   71 1   
    72   70   74 1   
    73   70   75 1   
    74   71   72 2   
    75   71   76 1   
    76   76   77 1   
    77   76   85 1   
    78   77   78 1   
    79   77   80 1   
    80   77   86 1   
    81   78   79 2   
    82   78   93 1   
    83   80   81 1   
    84   80   87 1   
    85   80   88 1   
    86   81   82 1   
    87   81   89 1   
    88   81   90 1   
    89   82   83 1   
    90   82   84 2   
    91   83   91 1   
    92   83   92 1   
    93   93   94 1   
    94   93  100 1   
    95   94   95 1   
    96   94   97 1   
    97   94  101 1   
    98   95   96 2   
    99   95  109 1   
   100   97   98 1   
   101   97   99 1   
   102   97  102 1   
   103   98  103 1   
   104   98  104 1   
   105   98  105 1   
   106   99  106 1   
   107   99  107 1   
   108   99  108 1   
   109  109  110 1   
   110  109  117 1   
   111  110  111 1   
   112  110  113 1   
   113  110  118 1   
   114  111  112 2   
   115  111  123 1   
   116  113  114 1   
   117  113  119 1   
   118  113  120 1   
   119  114  115 1   
   120  114  116 2   
   121  115  121 1   
   122  115  122 1   
   123  123  124 1   
   124  123  135 1   
   125  124  125 1   
   126  124  127 1   
   127  124  136 1   
   128  125  126 2   
   129  125  144 1   
   130  127  128 1   
   131  127  137 1   
   132  127  138 1   
   133  128  129 ar  
   134  128  130 ar  
   135  129  131 ar  
   136  129  139 1   
   137  130  132 ar  
   138  130  140 1   
   139  131  133 ar  
   140  131  141 1   
   141  132  133 ar  
   142  132  142 1   
   143  133  134 1   
   144  134  143 1   
   145  144  145 1   
   146  144  153 1   
   147  145  146 1   
   148  145  148 1   
   149  145  154 1   
   150  146  147 2   
   151  146  159 1   
   152  148  149 1   
   153  148  155 1   
   154  148  156 1   
   155  149  150 1   
   156  149  157 1   
   157  149  158 1   
   158  150  151 1   
   159  150  152 1   
   160  159  160 1   
   161  159  168 1   
   162  160  161 1   
   163  160  163 1   
   164  160  169 1   
   165  161  162 2   
   166  161  174 1   
   167  163  164 1   
   168  163  170 1   
   169  163  171 1   
   170  164  165 1   
   171  164  172 1   
   172  164  173 1   
   173  165  166 1   
   174  165  167 1   
   175  174  175 1   
   176  174  179 1   
   177  175  176 1   
   178  175  177 1   
   179  175  178 1   
   180  181  182 1   
   181  181  183 1   
@<TRIPOS>SUBSTRUCTURE
     1 MOL         1 TEMP              0 ****  ****    0 ROOT
