@<TRIPOS>MOLECULE
MOL
  179   176     1     0     0
SMALL
resp


@<TRIPOS>ATOM
      1 C1          1.1030    4.1220    5.0570 c3        1 MOL     -0.427702
      2 C2          0.6580    3.7910    3.6010 c         1 MOL      0.690570
      3 O1          1.4180    3.9670    2.6400 o         1 MOL     -0.576152
      4 H1          1.1150    3.2070    5.6490 hc        1 MOL      0.107736
      5 H2          2.1020    4.5580    5.0420 hc        1 MOL      0.107736
      6 H3          0.4030    4.8300    5.4990 hc        1 MOL      0.107736
      7 N1         -0.5650    3.2030    3.4400 n         1 MOL     -0.591557
      8 C3         -1.0820    2.7660    2.1210 c3        1 MOL      0.034474
      9 C4         -1.7370    4.0140    1.4610 c         1 MOL      0.302424
     10 O2         -2.8790    4.4140    1.7210 o         1 MOL     -0.487171
     11 C5         -2.1510    1.7300    2.4250 c3        1 MOL     -0.289646
     12 C6         -2.7520    1.1080    1.2260 c         1 MOL      0.965302
     13 O3         -3.7660    0.3820    1.3690 o         1 MOL     -0.763823
     14 O4         -2.2840    1.3980    0.0810 o         1 MOL     -0.763823
     15 H4         -1.1890    3.2540    4.2360 hn        1 MOL      0.332587
     16 H5         -0.2460    2.3900    1.5190 h1        1 MOL      0.110485
     17 H6         -2.9460    2.1660    3.0260 hc        1 MOL      0.083918
     18 H7         -1.6260    0.9330    2.9610 hc        1 MOL      0.083918
     19 N2         -1.0450    4.6010    0.4310 n         1 MOL      0.078226
     20 C7         -1.4940    5.8920   -0.1610 c3        1 MOL     -0.013080
     21 C8         -2.6400    5.7570   -1.1710 c         1 MOL      0.323158
     22 O5         -3.4100    6.7590   -1.3320 o         1 MOL     -0.543375
     23 C9         -0.3080    6.6550   -0.7910 c3        1 MOL     -0.119961
     24 C10         0.7800    6.9340    0.1560 c3        1 MOL     -0.115634
     25 C11         0.3870    7.7500    1.4500 c3        1 MOL     -0.034669
     26 C12         1.5580    8.2520    2.2510 c3        1 MOL     -0.005837
     27 N3          1.2480    8.7970    3.5130 n4        1 MOL     -0.339771
     28 H8         -0.2090    4.1330    0.1150 hn        1 MOL      0.225019
     29 H9         -1.9210    6.6200    0.5360 h1        1 MOL      0.053387
     30 H10        -0.6230    7.6760   -1.0590 hc        1 MOL      0.080811
     31 H11         0.0660    6.1180   -1.6640 hc        1 MOL      0.080811
     32 H12         1.4680    7.5970   -0.3720 hc        1 MOL      0.056308
     33 H13         1.2120    5.9700    0.4090 hc        1 MOL      0.056308
     34 H14        -0.1890    7.0080    2.0020 hc        1 MOL      0.042415
     35 H15        -0.2100    8.6440    1.2910 hc        1 MOL      0.042415
     36 H16         2.0160    9.0530    1.6860 hx        1 MOL      0.092600
     37 H17         2.2200    7.3960    2.3800 hx        1 MOL      0.092600
     38 H18         2.0110    9.1330    4.0770 hn        1 MOL      0.324862
     39 H19         0.6370    9.6020    3.4720 hn        1 MOL      0.324862
     40 H20         1.0070    8.0510    4.1530 hn        1 MOL      0.324862
     41 N4         -2.8750    4.5660   -1.7080 n         1 MOL     -0.122025
     42 C13        -3.9020    4.2720   -2.6590 c3        1 MOL      0.140937
     43 C14        -5.1060    3.5530   -2.0110 c         1 MOL      0.300611
     44 O6         -6.1630    3.5000   -2.6420 o         1 MOL     -0.492760
     45 C15        -3.3790    3.3890   -3.8030 c3        1 MOL     -0.333395
     46 C16        -2.6760    2.1130   -3.2910 c         1 MOL      0.805946
     47 O7         -1.5510    2.2120   -2.7610 o         1 MOL     -0.724873
     48 O8         -3.3120    1.0550   -3.2160 o         1 MOL     -0.724873
     49 H21        -2.3030    3.8380   -1.3000 hn        1 MOL      0.003815
     50 H22        -4.3300    5.1870   -3.0460 h1        1 MOL      0.092576
     51 H23        -2.8030    4.0720   -4.4170 hc        1 MOL      0.074871
     52 H24        -4.2050    3.1480   -4.4700 hc        1 MOL      0.074871
     53 N5         -4.9750    3.0350   -0.8020 n         1 MOL     -0.038010
     54 C17        -6.2040    2.6900   -0.0260 c3        1 MOL     -0.171701
     55 C18        -6.8410    1.3910   -0.4240 c         1 MOL      0.405060
     56 O9         -8.0500    1.2910   -0.6590 o         1 MOL     -0.556220
     57 H25        -4.0580    3.0780   -0.3980 hn        1 MOL      0.135470
     58 H26        -6.9700    3.4560   -0.1780 h1        1 MOL      0.105378
     59 H27        -5.9030    2.7330    1.0250 h1        1 MOL      0.105378
     60 N6         -6.0480    0.4200   -0.7710 n         1 MOL      0.077780
     61 C19        -6.5160   -0.9930   -1.1390 c3        1 MOL     -0.125054
     62 C20        -6.2940   -2.0140   -0.0530 c         1 MOL      0.317245
     63 O10        -6.6660   -3.1760   -0.1930 o         1 MOL     -0.407600
     64 C21        -5.7200   -1.3670   -2.4660 c3        1 MOL     -0.049662
     65 C22        -4.4180   -1.9880   -2.1580 c         1 MOL      0.527112
     66 N7         -4.0970   -3.1300   -2.5900 n         1 MOL     -0.748779
     67 O11        -3.5220   -1.4570   -1.4760 o         1 MOL     -0.515579
     68 H28        -5.0880    0.5430   -0.5150 hn        1 MOL      0.001170
     69 H29        -7.5520   -0.9880   -1.4620 h1        1 MOL      0.146171
     70 H30        -5.5250   -0.4340   -2.9980 hc        1 MOL      0.053559
     71 H31        -6.2710   -2.1110   -3.0330 hc        1 MOL      0.053559
     72 H32        -4.7320   -3.7570   -3.0530 hn        1 MOL      0.371220
     73 H33        -3.1360   -3.4120   -2.4240 hn        1 MOL      0.371220
     74 N8         -5.7530   -1.5660    1.1230 n         1 MOL     -0.323440
     75 C23        -5.5200   -2.4300    2.3530 c3        1 MOL     -0.080159
     76 C24        -4.2170   -3.1310    2.3410 c         1 MOL      0.571831
     77 O12        -4.1080   -4.0500    3.1900 o         1 MOL     -0.557358
     78 H34        -5.2370   -0.7050    1.0560 hn        1 MOL      0.256713
     79 H35        -6.3780   -3.0790    2.5240 h1        1 MOL      0.111963
     80 H36        -5.6290   -1.7950    3.2320 h1        1 MOL      0.111963
     81 N9         -3.2110   -2.8290    1.4700 n         1 MOL     -0.581661
     82 C25        -1.9680   -3.5880    1.3660 c3        1 MOL      0.408026
     83 C26        -0.7990   -2.6720    1.0690 c         1 MOL      0.742484
     84 O13        -1.0020   -1.6410    0.3860 o         1 MOL     -0.757686
     85 C27        -2.0530   -4.7210    0.3560 c3        1 MOL     -0.104045
     86 C28        -3.1240   -5.7190    0.6750 ca        1 MOL      0.164035
     87 C29        -4.3600   -5.5470    0.0080 ca        1 MOL     -0.327322
     88 C30        -2.8820   -6.8500    1.4400 ca        1 MOL     -0.327322
     89 C31        -5.4370   -6.4510    0.3100 ca        1 MOL     -0.062231
     90 C32        -3.9280   -7.8370    1.6160 ca        1 MOL     -0.062231
     91 C33        -5.1340   -7.6030    1.0410 ca        1 MOL      0.179504
     92 O14        -6.1640   -8.4190    1.3190 oh        1 MOL     -0.462623
     93 H37        -3.2840   -2.0150    0.8850 hn        1 MOL      0.289831
     94 H38        -1.7600   -3.9540    2.3670 h1        1 MOL     -0.033825
     95 H39        -1.0510   -5.1460    0.3230 hc        1 MOL      0.018601
     96 H40        -2.3160   -4.3430   -0.6320 hc        1 MOL      0.018601
     97 H41        -4.5900   -4.6100   -0.4770 ha        1 MOL      0.153355
     98 H42        -1.9450   -6.9980    1.9670 ha        1 MOL      0.153355
     99 H43        -6.4220   -6.1700   -0.0420 ha        1 MOL      0.097293
    100 H44        -3.7400   -8.7370    2.1800 ha        1 MOL      0.097293
    101 H45        -5.9230   -9.0490    2.0010 ho        1 MOL      0.350655
    102 N10         0.3690   -2.9160    1.7030 n         1 MOL     -0.550093
    103 C34         1.6250   -2.2440    1.4490 c3        1 MOL     -0.306212
    104 C35         2.6510   -3.2520    1.0190 c         1 MOL      0.574950
    105 O15         2.9740   -4.3250    1.6500 o         1 MOL     -0.567078
    106 C36         2.1460   -1.3490    2.5400 c3        1 MOL      0.323238
    107 C37         2.1860   -2.1680    3.8600 c3        1 MOL     -0.101466
    108 C38         1.0390   -0.2760    2.5940 c3        1 MOL     -0.422501
    109 C39         2.5890   -1.3640    5.1200 c3        1 MOL     -0.265917
    110 H46         0.3310   -3.7640    2.2500 hn        1 MOL      0.269896
    111 H47         1.4670   -1.6440    0.5440 h1        1 MOL      0.246538
    112 H48         3.1320   -0.9910    2.2340 hc        1 MOL     -0.068205
    113 H49         2.9610   -2.9390    3.8080 hc        1 MOL      0.084438
    114 H50         1.1740   -2.4850    4.1070 hc        1 MOL      0.084438
    115 H51         1.3310    0.4660    3.3340 hc        1 MOL      0.127695
    116 H52         0.9270    0.2330    1.6420 hc        1 MOL      0.127695
    117 H53         0.1560   -0.8520    2.8690 hc        1 MOL      0.127695
    118 H54         3.1990   -1.9410    5.8120 hc        1 MOL      0.068377
    119 H55         3.1410   -0.5060    4.7420 hc        1 MOL      0.068377
    120 H56         1.6220   -1.1080    5.5600 hc        1 MOL      0.068377
    121 N11         3.2640   -2.8660   -0.0950 n         1 MOL     -0.278603
    122 C40         4.5120   -3.4830   -0.6800 c3        1 MOL      0.044635
    123 C41         5.8010   -2.9420   -0.0810 c         1 MOL      0.378600
    124 O16         5.9190   -1.8750    0.5020 o         1 MOL     -0.335598
    125 C42         4.4770   -3.2740   -2.2650 c3        1 MOL     -0.416692
    126 O17         4.8520   -1.9690   -2.5880 oh        1 MOL     -0.337589
    127 H57         2.9960   -1.9940   -0.5140 hn        1 MOL      0.163029
    128 H58         4.4820   -4.5610   -0.5400 h1        1 MOL      0.078975
    129 H59         3.4510   -3.4460   -2.5910 h1        1 MOL      0.183138
    130 H60         5.1060   -4.0060   -2.7820 h1        1 MOL      0.183138
    131 H61         4.7270   -1.8470   -3.5280 ho        1 MOL      0.378746
    132 N12         6.8730   -3.6460   -0.4140 n         1 MOL     -0.351695
    133 C43         8.2230   -3.2720    0.0140 c3        1 MOL      0.101541
    134 C44         8.7070   -2.0400   -0.6680 c         1 MOL      0.491770
    135 O18         9.4310   -1.2400   -0.0690 o         1 MOL     -0.533835
    136 C45         9.1620   -4.4070   -0.4110 c3        1 MOL     -0.266116
    137 H62         6.8000   -4.5220   -0.9140 hn        1 MOL      0.271016
    138 H63         8.2390   -3.1410    1.1010 h1        1 MOL      0.103982
    139 H64        10.1650   -4.0160   -0.2910 hc        1 MOL      0.080708
    140 H65         8.9290   -5.3190    0.1490 hc        1 MOL      0.080708
    141 H66         9.0290   -4.5030   -1.4920 hc        1 MOL      0.080708
    142 N13         8.1690   -1.6540   -1.8380 n         1 MOL     -0.336122
    143 C46         8.3280   -0.2930   -2.3930 c3        1 MOL      0.127210
    144 C47         7.4130    0.7510   -1.7720 c         1 MOL      0.273369
    145 O19         7.7650    1.9100   -1.5170 o         1 MOL     -0.504008
    146 C48         8.1550   -0.2390   -3.9110 c3        1 MOL     -0.247041
    147 H67         7.5520   -2.2380   -2.4000 hn        1 MOL      0.207849
    148 H68         9.3610    0.0020   -2.2230 h1        1 MOL      0.100409
    149 H69         8.2130    0.7910   -4.2730 hc        1 MOL      0.068608
    150 H70         8.9300   -0.8540   -4.3510 hc        1 MOL      0.068608
    151 H71         7.1760   -0.6170   -4.2150 hc        1 MOL      0.068608
    152 N14         6.1710    0.5040   -1.5310 n         1 MOL     -0.016472
    153 C49         5.2650    1.3580   -0.7370 c3        1 MOL      0.033512
    154 C50         5.8660    1.6270    0.6400 c         1 MOL      0.328460
    155 O20         5.8750    2.8310    1.0090 o         1 MOL     -0.546442
    156 C51         3.9380    0.6860   -0.6140 c3        1 MOL      0.056573
    157 C52         3.1820    1.0420   -1.8780 c3        1 MOL     -0.250624
    158 C53         1.8170    0.4500   -1.7070 c         1 MOL      0.828588
    159 O21         1.4660   -0.7050   -2.0850 o         1 MOL     -0.782838
    160 O22         0.9510    1.2430   -1.3440 o         1 MOL     -0.782838
    161 H72         5.8110   -0.3950   -1.7970 hn        1 MOL      0.028832
    162 H73         5.1440    2.3430   -1.1900 h1        1 MOL      0.071323
    163 H74         3.4310    1.0290    0.2940 hc        1 MOL      0.031765
    164 H75         4.0990   -0.3850   -0.5320 hc        1 MOL      0.031765
    165 H76         3.6550    0.6960   -2.7980 hc        1 MOL      0.047884
    166 H77         3.0560    2.1260   -1.8480 hc        1 MOL      0.047884
    167 N15         6.5070    0.7000    1.3030 n         1 MOL      0.018069
    168 C54         7.3170    0.9140    2.5160 c3        1 MOL     -0.376653
    169 H78         8.1900    1.5180    2.2680 h1        1 MOL      0.131966
    170 H79         6.7190    1.4310    3.2660 h1        1 MOL      0.131966
    171 H80         7.6430   -0.0490    2.9110 h1        1 MOL      0.131966
    172 H81         6.4460   -0.2610    0.9860 hn        1 MOL      0.081921
    173 Ca1        -1.2130   -0.1400   -1.8400 Ca        1 MOL      1.744568
    174 O23        -1.0410   -2.7520   -2.4170 oh        1 MOL     -0.859154
    175 H82        -1.3830   -2.8080   -3.3100 ho        1 MOL      0.414121
    176 H83        -0.2490   -3.2890   -2.4270 ho        1 MOL      0.414121
    177 O24        -0.6920   -0.2590   -4.4120 oh        1 MOL     -0.859154
    178 H84        -0.8140    0.2420   -5.2190 ho        1 MOL      0.414121
    179 H85        -0.0230   -0.9020   -4.6420 ho        1 MOL      0.414121
@<TRIPOS>BOND
     1    1    2 1   
     2    1    4 1   
     3    1    5 1   
     4    1    6 1   
     5    2    3 2   
     6    2    7 1   
     7    7    8 1   
     8    7   15 1   
     9    8    9 1   
    10    8   11 1   
    11    8   16 1   
    12    9   10 2   
    13    9   19 1   
    14   11   12 1   
    15   11   17 1   
    16   11   18 1   
    17   12   13 1   
    18   12   14 1   
    19   19   20 1   
    20   19   28 1   
    21   20   21 1   
    22   20   23 1   
    23   20   29 1   
    24   21   22 2   
    25   21   41 1   
    26   23   24 1   
    27   23   30 1   
    28   23   31 1   
    29   24   25 1   
    30   24   32 1   
    31   24   33 1   
    32   25   26 1   
    33   25   34 1   
    34   25   35 1   
    35   26   27 1   
    36   26   36 1   
    37   26   37 1   
    38   27   38 1   
    39   27   39 1   
    40   27   40 1   
    41   41   42 1   
    42   41   49 1   
    43   42   43 1   
    44   42   45 1   
    45   42   50 1   
    46   43   44 2   
    47   43   53 1   
    48   45   46 1   
    49   45   51 1   
    50   45   52 1   
    51   46   47 1   
    52   46   48 1   
    53   53   54 1   
    54   53   57 1   
    55   54   55 1   
    56   54   58 1   
    57   54   59 1   
    58   55   56 2   
    59   55   60 1   
    60   60   61 1   
    61   60   68 1   
    62   61   62 1   
    63   61   64 1   
    64   61   69 1   
    65   62   63 2   
    66   62   74 1   
    67   64   65 1   
    68   64   70 1   
    69   64   71 1   
    70   65   66 1   
    71   65   67 2   
    72   66   72 1   
    73   66   73 1   
    74   74   75 1   
    75   74   78 1   
    76   75   76 1   
    77   75   79 1   
    78   75   80 1   
    79   76   77 2   
    80   76   81 1   
    81   81   82 1   
    82   81   93 1   
    83   82   83 1   
    84   82   85 1   
    85   82   94 1   
    86   83   84 2   
    87   83  102 1   
    88   85   86 1   
    89   85   95 1   
    90   85   96 1   
    91   86   87 ar  
    92   86   88 ar  
    93   87   89 ar  
    94   87   97 1   
    95   88   90 ar  
    96   88   98 1   
    97   89   91 ar  
    98   89   99 1   
    99   90   91 ar  
   100   90  100 1   
   101   91   92 1   
   102   92  101 1   
   103  102  103 1   
   104  102  110 1   
   105  103  104 1   
   106  103  106 1   
   107  103  111 1   
   108  104  105 2   
   109  104  121 1   
   110  106  107 1   
   111  106  108 1   
   112  106  112 1   
   113  107  109 1   
   114  107  113 1   
   115  107  114 1   
   116  108  115 1   
   117  108  116 1   
   118  108  117 1   
   119  109  118 1   
   120  109  119 1   
   121  109  120 1   
   122  121  122 1   
   123  121  127 1   
   124  122  123 1   
   125  122  125 1   
   126  122  128 1   
   127  123  124 2   
   128  123  132 1   
   129  125  126 1   
   130  125  129 1   
   131  125  130 1   
   132  126  131 1   
   133  132  133 1   
   134  132  137 1   
   135  133  134 1   
   136  133  136 1   
   137  133  138 1   
   138  134  135 2   
   139  134  142 1   
   140  136  139 1   
   141  136  140 1   
   142  136  141 1   
   143  142  143 1   
   144  142  147 1   
   145  143  144 1   
   146  143  146 1   
   147  143  148 1   
   148  144  145 2   
   149  144  152 1   
   150  146  149 1   
   151  146  150 1   
   152  146  151 1   
   153  152  153 1   
   154  152  161 1   
   155  153  154 1   
   156  153  156 1   
   157  153  162 1   
   158  154  155 2   
   159  154  167 1   
   160  156  157 1   
   161  156  163 1   
   162  156  164 1   
   163  157  158 1   
   164  157  165 1   
   165  157  166 1   
   166  158  159 1   
   167  158  160 1   
   168  167  168 1   
   169  167  172 1   
   170  168  169 1   
   171  168  170 1   
   172  168  171 1   
   173  174  175 1   
   174  174  176 1   
   175  177  178 1   
   176  177  179 1   
@<TRIPOS>SUBSTRUCTURE
     1 MOL         1 TEMP              0 ****  ****    0 ROOT
