@<TRIPOS>MOLECULE
MOL
  189   185     1     0     0
SMALL
resp


@<TRIPOS>ATOM
      1 C1          1.1870    2.2170    5.5610 c3        1 MOL     -0.174755
      2 C2          0.3990    2.0870    4.2370 c         1 MOL      0.768173
      3 O1          0.8660    2.6110    3.2140 o         1 MOL     -0.798369
      4 H1          2.1750    2.6300    5.3560 hc        1 MOL      0.049629
      5 H2          0.6500    2.8790    6.2400 hc        1 MOL      0.049629
      6 H3          1.2930    1.2340    6.0190 hc        1 MOL      0.049629
      7 N1         -0.8520    1.6230    4.1340 n         1 MOL     -0.623101
      8 C3         -1.5840    1.5410    2.8490 c3        1 MOL      0.260423
      9 C4         -1.8070    2.9340    2.3340 c         1 MOL      0.507970
     10 O2         -2.3110    3.8370    2.9680 o         1 MOL     -0.632606
     11 C5         -2.8090    0.6930    3.0340 c3        1 MOL     -0.260178
     12 C6         -3.6430    0.6240    1.7430 c         1 MOL      0.754256
     13 O3         -3.1620    0.9460    0.6360 o         1 MOL     -0.704725
     14 O4         -4.7700    0.0560    1.7590 o         1 MOL     -0.704725
     15 H4         -1.3120    1.5210    5.0260 hn        1 MOL      0.309060
     16 H5         -0.9380    1.0600    2.1230 h1        1 MOL     -0.025084
     17 H6         -3.4650    1.1090    3.8070 hc        1 MOL      0.059615
     18 H7         -2.4970   -0.3080    3.3040 hc        1 MOL      0.059615
     19 N2         -1.3660    3.2430    1.1390 n         1 MOL     -0.081517
     20 C7         -1.1890    4.6830    0.5930 c3        1 MOL     -0.189391
     21 C8         -2.1000    5.0480   -0.6000 c         1 MOL      0.641017
     22 O5         -2.0950    6.1900   -1.0160 o         1 MOL     -0.572121
     23 C9          0.2760    4.8760    0.2060 c3        1 MOL      0.034748
     24 C10         0.8590    6.3590    0.2710 c3        1 MOL      0.096966
     25 C11         0.8980    6.9560    1.6850 c3        1 MOL     -0.236814
     26 C12         1.1420    6.0090    2.8060 c3        1 MOL      0.248446
     27 N3          1.0830    6.6730    4.1490 n4        1 MOL     -0.513839
     28 H8         -1.1530    2.5030    0.4860 hn        1 MOL      0.321327
     29 H9         -1.2520    5.4090    1.4150 h1        1 MOL      0.076528
     30 H10         0.4840    4.5910   -0.8220 hc        1 MOL      0.043681
     31 H11         0.8860    4.2010    0.7970 hc        1 MOL      0.043681
     32 H12         0.4450    6.9890   -0.5140 hc        1 MOL     -0.015211
     33 H13         1.9310    6.3190    0.0470 hc        1 MOL     -0.015211
     34 H14        -0.0620    7.4300    1.8930 hc        1 MOL      0.053794
     35 H15         1.6720    7.7150    1.7700 hc        1 MOL      0.053794
     36 H16         2.1310    5.5670    2.6560 hx        1 MOL      0.095512
     37 H17         0.3150    5.3050    2.6690 hx        1 MOL      0.095512
     38 H18         1.7040    7.4520    4.3030 hn        1 MOL      0.346841
     39 H19         0.1830    7.1130    4.2800 hn        1 MOL      0.346841
     40 H20         1.1280    6.0690    4.9540 hn        1 MOL      0.346841
     41 N4         -2.9290    4.0740   -0.9780 n         1 MOL     -0.378329
     42 C13        -4.0500    4.1870   -1.9560 c3        1 MOL      0.076510
     43 C14        -5.3530    3.5420   -1.5340 c         1 MOL      0.332431
     44 O6         -6.4430    3.7190   -2.1590 o         1 MOL     -0.506316
     45 C15        -3.6990    3.6420   -3.2920 c3        1 MOL     -0.138235
     46 C16        -3.1640    2.2590   -3.3610 c         1 MOL      0.754069
     47 O7         -2.4660    2.0350   -4.3620 o         1 MOL     -0.697575
     48 O8         -3.3200    1.4460   -2.4360 o         1 MOL     -0.697575
     49 H21        -2.8300    3.1950   -0.5000 hn        1 MOL      0.052106
     50 H22        -4.1650    5.2690   -2.0440 h1        1 MOL      0.082335
     51 H23        -3.0280    4.3700   -3.7410 hc        1 MOL      0.038362
     52 H24        -4.6320    3.7920   -3.8530 hc        1 MOL      0.038362
     53 N5         -5.3760    2.7940   -0.3900 n         1 MOL     -0.157332
     54 C17        -6.5790    2.2500    0.3080 c3        1 MOL     -0.371194
     55 C18        -7.1310    0.9250   -0.1790 c         1 MOL      0.655053
     56 O9         -8.2760    0.6430    0.1110 o         1 MOL     -0.606161
     57 H25        -4.4970    2.6830    0.0790 hn        1 MOL      0.197668
     58 H26        -7.3380    3.0250    0.1710 h1        1 MOL      0.156910
     59 H27        -6.2560    2.1240    1.3380 h1        1 MOL      0.156910
     60 N6         -6.4540    0.1770   -1.0380 n         1 MOL     -0.274352
     61 C19        -7.0330   -0.9750   -1.7020 c3        1 MOL     -0.087112
     62 C20        -7.2590   -2.1910   -0.7890 c         1 MOL      0.466054
     63 O10        -7.8010   -3.2140   -1.2370 o         1 MOL     -0.562263
     64 C21        -6.1660   -1.4320   -2.8350 c3        1 MOL     -0.130128
     65 C22        -4.7470   -1.6310   -2.4580 c         1 MOL      0.690315
     66 O11        -4.4310   -1.9460   -1.3220 o         1 MOL     -0.732601
     67 O12        -3.7560   -1.4350   -3.2370 o         1 MOL     -0.732601
     68 H28        -5.5050    0.5170   -1.1330 hn        1 MOL      0.250271
     69 H29        -8.0280   -0.7810   -2.1030 h1        1 MOL      0.120274
     70 H30        -6.2050   -0.6620   -3.6000 hc        1 MOL      0.067512
     71 H31        -6.6320   -2.2650   -3.3750 hc        1 MOL      0.067512
     72 N7         -6.7870   -2.2090    0.4580 n         1 MOL     -0.249289
     73 C23        -6.8680   -3.2780    1.4280 c3        1 MOL     -0.119299
     74 C24        -5.6380   -4.1830    1.4400 c         1 MOL      0.526931
     75 O13        -5.8080   -5.2400    2.1020 o         1 MOL     -0.580313
     76 H32        -6.2030   -1.4290    0.7050 hn        1 MOL      0.266479
     77 H33        -7.7100   -3.9780    1.3090 h1        1 MOL      0.093592
     78 H34        -6.9460   -2.8440    2.4190 h1        1 MOL      0.093592
     79 N8         -4.4840   -3.8110    0.8520 n         1 MOL     -0.252504
     80 C25        -3.2680   -4.5530    0.7500 c3        1 MOL     -0.125575
     81 C26        -2.0570   -3.5430    0.8580 c         1 MOL      0.549292
     82 O14        -2.1720   -2.3360    0.4830 o         1 MOL     -0.675340
     83 C27        -3.2020   -5.3740   -0.5990 c3        1 MOL      0.505165
     84 C28        -4.2920   -6.4540   -0.7190 c3        1 MOL     -0.501449
     85 O15        -3.2270   -4.5200   -1.7200 oh        1 MOL     -0.679416
     86 H35        -4.5430   -2.9650    0.2930 hn        1 MOL      0.251701
     87 H36        -3.2600   -5.2590    1.5740 h1        1 MOL      0.058261
     88 H37        -2.2610   -5.9240   -0.5100 h1        1 MOL     -0.019973
     89 H38        -3.9080   -3.8630   -1.5450 ho        1 MOL      0.442042
     90 H39        -3.7950   -7.3590   -1.0720 hc        1 MOL      0.130614
     91 H40        -4.7630   -6.7010    0.2310 hc        1 MOL      0.130614
     92 H41        -5.0980   -6.1310   -1.3730 hc        1 MOL      0.130614
     93 N9         -0.8680   -4.0370    1.2750 n         1 MOL     -0.559640
     94 C29         0.3530   -3.2250    1.4990 c3        1 MOL      0.119185
     95 C30         1.4730   -3.7650    0.6600 c         1 MOL      0.482094
     96 O16         1.7470   -4.9720    0.6580 o         1 MOL     -0.574975
     97 C31         0.7560   -3.1890    3.0090 c3        1 MOL      0.068595
     98 C32        -0.4160   -2.4350    3.6990 c3        1 MOL      0.460403
     99 C33         2.1600   -2.4730    3.1400 c3        1 MOL     -0.512102
    100 C34        -0.3180   -2.3480    5.2740 c3        1 MOL     -0.369729
    101 H42        -0.8440   -5.0470    1.3010 hn        1 MOL      0.306248
    102 H43         0.1390   -2.1940    1.2260 h1        1 MOL      0.063746
    103 H44         0.8310   -4.2410    3.2830 hc        1 MOL      0.002855
    104 H45        -1.3110   -3.0470    3.5400 hc        1 MOL     -0.054954
    105 H46        -0.4820   -1.3840    3.4280 hc        1 MOL     -0.054954
    106 H47         2.9400   -3.1880    2.8900 hc        1 MOL      0.093869
    107 H48         2.3130   -1.4780    2.7390 hc        1 MOL      0.093869
    108 H49         2.3950   -2.4630    4.2010 hc        1 MOL      0.093869
    109 H50        -0.5060   -3.3510    5.6480 hc        1 MOL      0.064371
    110 H51         0.6300   -1.8770    5.5260 hc        1 MOL      0.064371
    111 H52        -1.1910   -1.7660    5.5820 hc        1 MOL      0.064371
    112 N10         2.1140   -2.9030   -0.0760 n         1 MOL     -0.135954
    113 C35         3.4060   -3.2050   -0.8080 c3        1 MOL      0.020814
    114 C36         4.7300   -2.8650   -0.0470 c         1 MOL      0.252226
    115 O17         4.7150   -2.1400    0.9000 o         1 MOL     -0.290511
    116 C37         3.5640   -2.5790   -2.1760 c3        1 MOL      0.056188
    117 C38         2.6770   -3.1980   -3.1450 c3        1 MOL     -0.669099
    118 O18         3.5190   -1.1530   -2.0150 oh        1 MOL     -0.197024
    119 H53         1.7130   -1.9720   -0.0550 hn        1 MOL      0.323411
    120 H54         3.5020   -4.2780   -0.9480 h1        1 MOL      0.067905
    121 H55         4.5490   -2.8160   -2.5730 h1        1 MOL      0.047339
    122 H56         3.2640   -0.8150   -2.8760 ho        1 MOL      0.294329
    123 H57         2.7780   -4.2850   -3.1590 hc        1 MOL      0.183116
    124 H58         1.6310   -2.9810   -2.9110 hc        1 MOL      0.183116
    125 H59         2.9030   -2.7540   -4.1170 hc        1 MOL      0.183116
    126 N11         5.8970   -3.3580   -0.4790 n         1 MOL     -0.084260
    127 C39         7.1900   -2.9990   -0.0070 c3        1 MOL     -0.448165
    128 C40         7.4740   -1.5170   -0.1800 c         1 MOL      0.542233
    129 O19         8.1300   -0.9050    0.6450 o         1 MOL     -0.504032
    130 C41         8.3690   -3.6280   -0.7150 c3        1 MOL      0.259093
    131 C42         8.3900   -5.1190   -0.3710 c3        1 MOL     -0.266738
    132 O20         8.1810   -3.4340   -2.1270 oh        1 MOL     -0.639530
    133 H60         5.8370   -4.0210   -1.2460 hn        1 MOL      0.233020
    134 H61         7.1140   -3.2920    1.0450 h1        1 MOL      0.215656
    135 H62         9.3100   -3.2100   -0.3460 h1        1 MOL      0.083563
    136 H63         8.7670   -4.0870   -2.5160 ho        1 MOL      0.420752
    137 H64         7.3840   -5.5130   -0.5020 hc        1 MOL      0.079570
    138 H65         9.1920   -5.7010   -0.8340 hc        1 MOL      0.079570
    139 H66         8.5460   -5.2280    0.7020 hc        1 MOL      0.079570
    140 N12         6.9390   -0.8730   -1.1920 n         1 MOL     -0.121897
    141 C43         6.9840    0.5330   -1.4320 c3        1 MOL     -0.254937
    142 C44         6.3290    1.2770   -0.2840 c         1 MOL      0.342745
    143 O21         6.8770    2.1870    0.3280 o         1 MOL     -0.492689
    144 C45         6.2040    0.8230   -2.7830 c3        1 MOL      0.109340
    145 C46         6.0960    2.3110   -3.0790 c3        1 MOL     -0.244196
    146 C47         5.7020    2.7130   -4.4640 c3        1 MOL      0.094680
    147 C48         5.1960    4.1570   -4.4750 c3        1 MOL      0.064824
    148 N13         4.7060    4.5090   -5.8280 n4        1 MOL     -0.420751
    149 H67         6.3720   -1.3480   -1.8750 hn        1 MOL      0.182570
    150 H68         7.9730    0.9790   -1.4850 h1        1 MOL      0.142652
    151 H69         5.2070    0.3870   -2.7020 hc        1 MOL     -0.015618
    152 H70         6.6090    0.2840   -3.6410 hc        1 MOL     -0.015618
    153 H71         7.1170    2.7000   -2.9670 hc        1 MOL      0.072257
    154 H72         5.4490    2.7120   -2.3060 hc        1 MOL      0.072257
    155 H73         4.9980    2.0230   -4.9200 hc        1 MOL      0.015947
    156 H74         6.6020    2.6450   -5.0850 hc        1 MOL      0.015947
    157 H75         6.0490    4.7740   -4.2010 hx        1 MOL      0.076988
    158 H76         4.4620    4.3390   -3.6910 hx        1 MOL      0.076988
    159 H77         5.4510    4.2900   -6.4790 hn        1 MOL      0.319681
    160 H78         3.7610    4.1770   -5.9690 hn        1 MOL      0.319681
    161 H79         4.6540    5.5140   -5.9080 hn        1 MOL      0.319681
    162 N14         5.1060    0.7950    0.0290 n         1 MOL      0.437063
    163 C49         4.1850    1.3230    1.0070 c3        1 MOL     -0.506143
    164 C50         4.7740    1.1030    2.3930 c         1 MOL      0.499099
    165 O22         4.7660    1.9840    3.2610 o         1 MOL     -0.565484
    166 C51         2.7650    0.6660    0.9160 c3        1 MOL      0.283548
    167 C52         1.9590    1.3760   -0.2260 c3        1 MOL     -0.537402
    168 C53         0.4980    0.8710   -0.2630 c         1 MOL      0.588903
    169 O23        -0.3180    1.5880   -0.7740 o         1 MOL     -0.711068
    170 O24         0.2160   -0.2810    0.0930 o         1 MOL     -0.711068
    171 H80         4.7230   -0.0010   -0.4590 hn        1 MOL     -0.197207
    172 H81         4.1140    2.3950    0.8340 h1        1 MOL      0.130904
    173 H82         2.2080    0.7300    1.8400 hc        1 MOL      0.082598
    174 H83         2.9140   -0.3860    0.6690 hc        1 MOL      0.082598
    175 H84         2.3910    1.3240   -1.2220 hc        1 MOL      0.089348
    176 H85         1.9140    2.4060    0.1240 hc        1 MOL      0.089348
    177 N15         5.4160   -0.0160    2.7440 n         1 MOL     -0.045787
    178 C54         6.2480   -0.1670    3.8850 c3        1 MOL     -0.620087
    179 H86         7.1930    0.3500    3.7150 h1        1 MOL      0.193946
    180 H87         5.7520    0.2590    4.7570 h1        1 MOL      0.193946
    181 H88         6.4400   -1.2260    4.0580 h1        1 MOL      0.193946
    182 H89         5.4930   -0.7040    1.9990 hn        1 MOL      0.130773
    183 Ca1        -1.9460   -0.4430   -1.2570 Ca        1 MOL      1.776943
    184 O25        -0.7240   -2.9450   -2.0630 oh        1 MOL     -0.846493
    185 H90        -1.3920   -3.6340   -2.0910 ho        1 MOL      0.415118
    186 H91        -0.4460   -2.8380   -2.9700 ho        1 MOL      0.415118
    187 O26        -0.1690   -0.2830   -3.3940 oh        1 MOL     -0.846493
    188 H92         0.7680   -0.0900   -3.2750 ho        1 MOL      0.415118
    189 H93        -0.3350   -0.0480   -4.3110 ho        1 MOL      0.415118
@<TRIPOS>BOND
     1    1    2 1   
     2    1    4 1   
     3    1    5 1   
     4    1    6 1   
     5    2    3 2   
     6    2    7 1   
     7    7    8 1   
     8    7   15 1   
     9    8    9 1   
    10    8   11 1   
    11    8   16 1   
    12    9   10 2   
    13    9   19 1   
    14   11   12 1   
    15   11   17 1   
    16   11   18 1   
    17   12   13 1   
    18   12   14 1   
    19   19   20 1   
    20   19   28 1   
    21   20   21 1   
    22   20   23 1   
    23   20   29 1   
    24   21   22 2   
    25   21   41 1   
    26   23   24 1   
    27   23   30 1   
    28   23   31 1   
    29   24   25 1   
    30   24   32 1   
    31   24   33 1   
    32   25   26 1   
    33   25   34 1   
    34   25   35 1   
    35   26   27 1   
    36   26   36 1   
    37   26   37 1   
    38   27   38 1   
    39   27   39 1   
    40   27   40 1   
    41   41   42 1   
    42   41   49 1   
    43   42   43 1   
    44   42   45 1   
    45   42   50 1   
    46   43   44 2   
    47   43   53 1   
    48   45   46 1   
    49   45   51 1   
    50   45   52 1   
    51   46   47 1   
    52   46   48 1   
    53   53   54 1   
    54   53   57 1   
    55   54   55 1   
    56   54   58 1   
    57   54   59 1   
    58   55   56 2   
    59   55   60 1   
    60   60   61 1   
    61   60   68 1   
    62   61   62 1   
    63   61   64 1   
    64   61   69 1   
    65   62   63 2   
    66   62   72 1   
    67   64   65 1   
    68   64   70 1   
    69   64   71 1   
    70   65   66 1   
    71   65   67 1   
    72   72   73 1   
    73   72   76 1   
    74   73   74 1   
    75   73   77 1   
    76   73   78 1   
    77   74   75 2   
    78   74   79 1   
    79   79   80 1   
    80   79   86 1   
    81   80   81 1   
    82   80   83 1   
    83   80   87 1   
    84   81   82 2   
    85   81   93 1   
    86   83   84 1   
    87   83   85 1   
    88   83   88 1   
    89   84   90 1   
    90   84   91 1   
    91   84   92 1   
    92   85   89 1   
    93   93   94 1   
    94   93  101 1   
    95   94   95 1   
    96   94   97 1   
    97   94  102 1   
    98   95   96 2   
    99   95  112 1   
   100   97   98 1   
   101   97   99 1   
   102   97  103 1   
   103   98  100 1   
   104   98  104 1   
   105   98  105 1   
   106   99  106 1   
   107   99  107 1   
   108   99  108 1   
   109  100  109 1   
   110  100  110 1   
   111  100  111 1   
   112  112  113 1   
   113  112  119 1   
   114  113  114 1   
   115  113  116 1   
   116  113  120 1   
   117  114  115 2   
   118  114  126 1   
   119  116  117 1   
   120  116  118 1   
   121  116  121 1   
   122  117  123 1   
   123  117  124 1   
   124  117  125 1   
   125  118  122 1   
   126  126  127 1   
   127  126  133 1   
   128  127  128 1   
   129  127  130 1   
   130  127  134 1   
   131  128  129 2   
   132  128  140 1   
   133  130  131 1   
   134  130  132 1   
   135  130  135 1   
   136  131  137 1   
   137  131  138 1   
   138  131  139 1   
   139  132  136 1   
   140  140  141 1   
   141  140  149 1   
   142  141  142 1   
   143  141  144 1   
   144  141  150 1   
   145  142  143 2   
   146  142  162 1   
   147  144  145 1   
   148  144  151 1   
   149  144  152 1   
   150  145  146 1   
   151  145  153 1   
   152  145  154 1   
   153  146  147 1   
   154  146  155 1   
   155  146  156 1   
   156  147  148 1   
   157  147  157 1   
   158  147  158 1   
   159  148  159 1   
   160  148  160 1   
   161  148  161 1   
   162  162  163 1   
   163  162  171 1   
   164  163  164 1   
   165  163  166 1   
   166  163  172 1   
   167  164  165 2   
   168  164  177 1   
   169  166  167 1   
   170  166  173 1   
   171  166  174 1   
   172  167  168 1   
   173  167  175 1   
   174  167  176 1   
   175  168  169 1   
   176  168  170 1   
   177  177  178 1   
   178  177  182 1   
   179  178  179 1   
   180  178  180 1   
   181  178  181 1   
   182  184  185 1   
   183  184  186 1   
   184  187  188 1   
   185  187  189 1   
@<TRIPOS>SUBSTRUCTURE
     1 MOL         1 TEMP              0 ****  ****    0 ROOT
