@<TRIPOS>MOLECULE
MOL
  179   176     1     0     0
SMALL
resp


@<TRIPOS>ATOM
      1 C1          2.2690    3.3450    4.6870 c3        1 MOL     -0.366199
      2 C2          1.6760    3.0920    3.2750 c         1 MOL      0.790418
      3 O1          2.3590    2.9480    2.2610 o         1 MOL     -0.651855
      4 H1          2.1260    4.3910    4.9580 hc        1 MOL      0.088991
      5 H2          1.7620    2.7090    5.4130 hc        1 MOL      0.088991
      6 H3          3.3330    3.1140    4.6810 hc        1 MOL      0.088991
      7 N1          0.3270    2.8910    3.2370 n         1 MOL     -0.697811
      8 C3         -0.4900    2.6960    2.0790 c3        1 MOL      0.361901
      9 C4         -1.1270    3.9260    1.5440 c         1 MOL      0.252832
     10 O2         -2.1790    4.3360    1.9280 o         1 MOL     -0.465434
     11 C5         -1.4920    1.5770    2.3930 c3        1 MOL     -0.099344
     12 C6         -2.6050    1.4420    1.3530 c         1 MOL      0.393767
     13 O3         -3.8140    1.3800    1.6890 o         1 MOL     -0.612860
     14 O4         -2.2530    1.3830    0.1010 o         1 MOL     -0.612860
     15 H4         -0.2220    3.0120    4.0800 hn        1 MOL      0.318857
     16 H5          0.0930    2.2250    1.2750 h1        1 MOL      0.029549
     17 H6         -2.0030    1.7290    3.3490 hc        1 MOL      0.037484
     18 H7         -1.0020    0.6170    2.5520 hc        1 MOL      0.037484
     19 N2         -0.4530    4.5240    0.5900 n         1 MOL     -0.149254
     20 C7         -0.7990    5.8510    0.1360 c3        1 MOL      0.135964
     21 C8         -1.8150    5.8820   -0.9910 c         1 MOL      0.399442
     22 O5         -2.4560    6.8850   -1.1560 o         1 MOL     -0.554792
     23 C9          0.4680    6.5600   -0.2410 c3        1 MOL     -0.212145
     24 C10         1.5420    6.7230    0.9110 c3        1 MOL      0.189894
     25 C11         2.8920    7.3080    0.3860 c3        1 MOL      0.015172
     26 C12         3.7840    8.0590    1.3420 c3        1 MOL     -0.104243
     27 N3          4.2840    7.1740    2.4360 n4        1 MOL     -0.280485
     28 H8          0.3720    4.0090    0.3000 hn        1 MOL      0.270875
     29 H9         -1.2010    6.4650    0.9370 h1        1 MOL      0.059576
     30 H10         0.1190    7.5140   -0.6400 hc        1 MOL      0.057224
     31 H11         1.0070    5.9580   -0.9680 hc        1 MOL      0.057224
     32 H12         1.6500    5.8290    1.5120 hc        1 MOL     -0.060631
     33 H13         1.1260    7.3950    1.6690 hc        1 MOL     -0.060631
     34 H14         2.5870    8.0460   -0.3590 hc        1 MOL      0.031847
     35 H15         3.4310    6.5060   -0.1080 hc        1 MOL      0.031847
     36 H16         3.2830    8.9270    1.7610 hx        1 MOL      0.123966
     37 H17         4.6430    8.2730    0.7030 hx        1 MOL      0.123966
     38 H18         3.5790    6.9250    3.1170 hn        1 MOL      0.310080
     39 H19         4.6830    6.2850    2.1910 hn        1 MOL      0.310080
     40 H20         5.0870    7.6470    2.8300 hn        1 MOL      0.310080
     41 N4         -1.9120    4.8340   -1.7620 n         1 MOL     -0.150265
     42 C13        -2.9250    4.6290   -2.7970 c3        1 MOL     -0.090110
     43 C14        -4.2880    4.2360   -2.2070 c         1 MOL      0.408055
     44 O6         -5.2710    4.0470   -2.9190 o         1 MOL     -0.535461
     45 C15        -2.4620    3.6760   -3.8870 c3        1 MOL     -0.100976
     46 C16        -1.9370    2.2820   -3.2690 c         1 MOL      0.655095
     47 O7         -0.9200    2.2980   -2.5150 o         1 MOL     -0.724610
     48 O8         -2.5000    1.2450   -3.5020 o         1 MOL     -0.724610
     49 H21        -1.3690    4.0150   -1.5100 hn        1 MOL      0.095500
     50 H22        -3.0140    5.5480   -3.3720 h1        1 MOL      0.118045
     51 H23        -1.6830    4.1320   -4.4900 hc        1 MOL      0.047396
     52 H24        -3.2910    3.4830   -4.5700 hc        1 MOL      0.047396
     53 N5         -4.3940    4.1020   -0.8790 n         1 MOL      0.015820
     54 C17        -5.6110    3.8970   -0.1070 c3        1 MOL     -0.456750
     55 C18        -6.3710    2.5970   -0.2420 c         1 MOL      0.656800
     56 O9         -7.3270    2.4450    0.4900 o         1 MOL     -0.564878
     57 H25        -3.4820    4.2300   -0.4630 hn        1 MOL      0.109469
     58 H26        -6.2550    4.7550   -0.3050 h1        1 MOL      0.177368
     59 H27        -5.2730    3.8650    0.9350 h1        1 MOL      0.177368
     60 N6         -5.7480    1.5320   -0.8630 n         1 MOL     -0.300731
     61 C19        -6.4140    0.2530   -1.1650 c3        1 MOL     -0.119593
     62 C20        -6.4660   -0.7240   -0.0090 c         1 MOL      0.284046
     63 O10        -7.0320   -1.8010   -0.1070 o         1 MOL     -0.440030
     64 C21        -5.7660   -0.3220   -2.4990 c3        1 MOL     -0.365893
     65 C22        -4.5690   -1.1510   -2.3660 c         1 MOL      0.735792
     66 N7         -4.3130   -2.0480   -3.1990 n         1 MOL     -0.672147
     67 O11        -3.7190   -1.0310   -1.4910 o         1 MOL     -0.672809
     68 H28        -4.7740    1.5530   -1.0950 hn        1 MOL      0.233395
     69 H29        -7.3760    0.6840   -1.4290 h1        1 MOL      0.155840
     70 H30        -5.6650    0.5260   -3.1810 hc        1 MOL      0.137209
     71 H31        -6.4440   -1.0760   -2.9090 hc        1 MOL      0.137209
     72 H32        -4.9210   -2.1900   -4.0010 hn        1 MOL      0.326616
     73 H33        -3.4710   -2.5560   -3.0090 hn        1 MOL      0.326616
     74 N8         -5.8790   -0.3820    1.0880 n         1 MOL     -0.117709
     75 C23        -5.7870   -1.1460    2.3130 c3        1 MOL     -0.141305
     76 C24        -4.6460   -2.1720    2.4380 c         1 MOL      0.630534
     77 O12        -4.7370   -3.0870    3.2840 o         1 MOL     -0.577781
     78 H34        -5.5380    0.5630    1.1820 hn        1 MOL      0.298044
     79 H35        -6.6990   -1.6340    2.6390 h1        1 MOL      0.081909
     80 H36        -5.5050   -0.4190    3.0750 h1        1 MOL      0.081909
     81 N9         -3.5950   -2.1980    1.5850 n         1 MOL     -0.581337
     82 C25        -2.6640   -3.2300    1.3270 c3        1 MOL      0.238725
     83 C26        -1.2640   -2.6980    1.0940 c         1 MOL      0.604383
     84 O13        -1.1410   -1.8310    0.2210 o         1 MOL     -0.698717
     85 C27        -3.1560   -4.1330    0.2140 c3        1 MOL      0.245690
     86 C28        -4.4560   -4.9440    0.3670 ca        1 MOL     -0.094613
     87 C29        -5.5860   -4.8060   -0.5250 ca        1 MOL     -0.145236
     88 C30        -4.6150   -5.8070    1.5130 ca        1 MOL     -0.145236
     89 C31        -6.7790   -5.5310   -0.4070 ca        1 MOL     -0.256083
     90 C32        -5.8270   -6.4520    1.6800 ca        1 MOL     -0.256083
     91 C33        -6.8880   -6.3540    0.7420 ca        1 MOL      0.355054
     92 O14        -8.0530   -7.0420    0.8980 oh        1 MOL     -0.500855
     93 H37        -3.7110   -1.5450    0.8260 hn        1 MOL      0.404436
     94 H38        -2.7280   -3.8930    2.1970 h1        1 MOL     -0.002946
     95 H39        -2.4300   -4.9460    0.1840 hc        1 MOL     -0.074359
     96 H40        -3.1430   -3.6590   -0.7700 hc        1 MOL     -0.074359
     97 H41        -5.4780   -4.2270   -1.4290 ha        1 MOL      0.132797
     98 H42        -3.7840   -5.8450    2.2080 ha        1 MOL      0.132797
     99 H43        -7.6020   -5.4780   -1.1060 ha        1 MOL      0.147958
    100 H44        -5.9880   -7.0220    2.5830 ha        1 MOL      0.147958
    101 H45        -8.1080   -7.5850    1.6810 ho        1 MOL      0.363058
    102 N10        -0.2690   -3.1850    1.8210 n         1 MOL     -0.575803
    103 C34         1.1440   -2.6800    1.8230 c3        1 MOL      0.041830
    104 C35         2.0640   -3.7930    1.2430 c         1 MOL      0.524182
    105 O15         2.0810   -4.9360    1.6140 o         1 MOL     -0.543728
    106 C36         1.6280   -2.2530    3.2460 c3        1 MOL      0.314170
    107 C37         0.7390   -1.2140    4.0290 c3        1 MOL      0.147940
    108 C38         3.0060   -1.7880    3.2330 c3        1 MOL     -0.447653
    109 C39         0.9670   -1.2280    5.5090 c3        1 MOL     -0.263871
    110 H46        -0.4640   -3.9290    2.4600 hn        1 MOL      0.291388
    111 H47         1.1530   -1.8410    1.1240 h1        1 MOL      0.085332
    112 H48         1.6430   -3.1810    3.8070 hc        1 MOL     -0.046160
    113 H49        -0.3020   -1.4360    3.7960 hc        1 MOL     -0.036212
    114 H50         0.8150   -0.2620    3.5170 hc        1 MOL     -0.036212
    115 H51         2.9490   -0.9290    2.5650 hc        1 MOL      0.077195
    116 H52         3.3770   -1.5650    4.2290 hc        1 MOL      0.077195
    117 H53         3.6610   -2.5380    2.7910 hc        1 MOL      0.077195
    118 H54         0.2860   -0.4720    5.9180 hc        1 MOL      0.065761
    119 H55         0.6690   -2.1970    5.9050 hc        1 MOL      0.065761
    120 H56         2.0070   -0.9730    5.7110 hc        1 MOL      0.065761
    121 N11         2.7610   -3.3130    0.2110 n         1 MOL     -0.356869
    122 C40         3.7380   -4.0000   -0.7010 c3        1 MOL      0.025161
    123 C41         5.1820   -3.6810   -0.3770 c         1 MOL      0.402362
    124 O16         5.4340   -2.5910    0.1610 o         1 MOL     -0.433271
    125 C42         3.4800   -3.7190   -2.2380 c3        1 MOL      0.315938
    126 O17         2.1050   -3.7930   -2.4540 oh        1 MOL     -0.647516
    127 H57         2.6710   -2.3230    0.0220 hn        1 MOL      0.453417
    128 H58         3.6650   -5.0770   -0.5130 h1        1 MOL      0.052202
    129 H59         3.9990   -4.4680   -2.8450 h1        1 MOL     -0.027351
    130 H60         3.9160   -2.7550   -2.4990 h1        1 MOL     -0.027351
    131 H61         1.6930   -2.9710   -2.1830 ho        1 MOL      0.364405
    132 N12         6.1150   -4.5020   -0.8030 n         1 MOL     -0.438497
    133 C43         7.5220   -4.2940   -0.4880 c3        1 MOL      0.220276
    134 C44         7.9650   -2.8120   -0.8180 c         1 MOL      0.351627
    135 O18         8.4560   -2.1790    0.0790 o         1 MOL     -0.502961
    136 C45         8.3990   -5.2460   -1.3740 c3        1 MOL     -0.451128
    137 H62         5.8570   -5.3860   -1.2340 hn        1 MOL      0.283988
    138 H63         7.6140   -4.4970    0.5690 h1        1 MOL      0.077721
    139 H64         8.4360   -6.2760   -0.9990 hc        1 MOL      0.131341
    140 H65         8.0350   -5.2850   -2.4070 hc        1 MOL      0.131341
    141 H66         9.4660   -5.0100   -1.3930 hc        1 MOL      0.131341
    142 N13         7.6470   -2.3150   -2.0130 n         1 MOL     -0.213984
    143 C46         8.0770   -1.0040   -2.4850 c3        1 MOL      0.038640
    144 C47         7.3640    0.1710   -1.7590 c         1 MOL      0.344047
    145 O19         7.8070    1.2990   -1.7260 o         1 MOL     -0.498709
    146 C48         7.8270   -0.9510   -3.9400 c3        1 MOL     -0.344069
    147 H67         7.2040   -2.9510   -2.6620 hn        1 MOL      0.174844
    148 H68         9.1580   -0.8860   -2.3880 h1        1 MOL      0.118220
    149 H69         7.7900    0.0790   -4.3150 hc        1 MOL      0.103220
    150 H70         8.6420   -1.4260   -4.4920 hc        1 MOL      0.103220
    151 H71         6.8100   -1.2170   -4.2110 hc        1 MOL      0.103220
    152 N14         6.1760   -0.0850   -1.1780 n         1 MOL      0.075054
    153 C49         5.4200    0.9110   -0.4400 c3        1 MOL     -0.280145
    154 C50         6.0420    1.1690    0.9760 c         1 MOL      0.509411
    155 O20         6.4380    2.2480    1.3090 o         1 MOL     -0.552577
    156 C51         4.0260    0.5050   -0.1890 c3        1 MOL      0.331177
    157 C52         3.3470    0.1710   -1.4610 c3        1 MOL     -0.145948
    158 C53         1.8670   -0.1630   -1.2920 c         1 MOL      0.811920
    159 O21         1.4590   -1.3560   -1.5240 o         1 MOL     -0.790480
    160 O22         1.0460    0.7350   -0.8800 o         1 MOL     -0.790480
    161 H72         5.8100   -1.0290   -1.1770 hn        1 MOL      0.055922
    162 H73         5.4900    1.8770   -0.9440 h1        1 MOL      0.121329
    163 H74         3.4610    1.2490    0.3620 hc        1 MOL     -0.077733
    164 H75         4.0960   -0.3480    0.4790 hc        1 MOL     -0.077733
    165 H76         3.8760   -0.7030   -1.8470 hc        1 MOL     -0.027437
    166 H77         3.5930    0.9720   -2.1600 hc        1 MOL     -0.027437
    167 N15         6.3650    0.0950    1.6630 n         1 MOL     -0.126607
    168 C54         7.1570    0.0630    2.9120 c3        1 MOL     -0.553868
    169 H78         6.9250    0.9430    3.5120 h1        1 MOL      0.187240
    170 H79         6.9100   -0.8360    3.4760 h1        1 MOL      0.187240
    171 H80         8.2190    0.0600    2.6680 h1        1 MOL      0.187240
    172 H81         6.2660   -0.7700    1.1590 hn        1 MOL      0.209485
    173 Ca1        -1.1710   -0.2030   -1.7800 Ca        1 MOL      1.774495
    174 O23        -0.1420   -0.6370   -4.1850 oh        1 MOL     -0.805772
    175 H82        -0.6900   -0.8450   -4.9380 ho        1 MOL      0.407454
    176 H83         0.6930   -0.3800   -4.5640 ho        1 MOL      0.407454
    177 O24        -1.0880   -2.8180   -2.6540 oh        1 MOL     -0.805772
    178 H84        -1.1600   -3.7150   -2.3210 ho        1 MOL      0.407454
    179 H85        -0.4690   -2.8740   -3.3750 ho        1 MOL      0.407454
@<TRIPOS>BOND
     1    1    2 1   
     2    1    4 1   
     3    1    5 1   
     4    1    6 1   
     5    2    3 2   
     6    2    7 1   
     7    7    8 1   
     8    7   15 1   
     9    8    9 1   
    10    8   11 1   
    11    8   16 1   
    12    9   10 2   
    13    9   19 1   
    14   11   12 1   
    15   11   17 1   
    16   11   18 1   
    17   12   13 1   
    18   12   14 1   
    19   19   20 1   
    20   19   28 1   
    21   20   21 1   
    22   20   23 1   
    23   20   29 1   
    24   21   22 2   
    25   21   41 1   
    26   23   24 1   
    27   23   30 1   
    28   23   31 1   
    29   24   25 1   
    30   24   32 1   
    31   24   33 1   
    32   25   26 1   
    33   25   34 1   
    34   25   35 1   
    35   26   27 1   
    36   26   36 1   
    37   26   37 1   
    38   27   38 1   
    39   27   39 1   
    40   27   40 1   
    41   41   42 1   
    42   41   49 1   
    43   42   43 1   
    44   42   45 1   
    45   42   50 1   
    46   43   44 2   
    47   43   53 1   
    48   45   46 1   
    49   45   51 1   
    50   45   52 1   
    51   46   47 1   
    52   46   48 1   
    53   53   54 1   
    54   53   57 1   
    55   54   55 1   
    56   54   58 1   
    57   54   59 1   
    58   55   56 2   
    59   55   60 1   
    60   60   61 1   
    61   60   68 1   
    62   61   62 1   
    63   61   64 1   
    64   61   69 1   
    65   62   63 2   
    66   62   74 1   
    67   64   65 1   
    68   64   70 1   
    69   64   71 1   
    70   65   66 1   
    71   65   67 2   
    72   66   72 1   
    73   66   73 1   
    74   74   75 1   
    75   74   78 1   
    76   75   76 1   
    77   75   79 1   
    78   75   80 1   
    79   76   77 2   
    80   76   81 1   
    81   81   82 1   
    82   81   93 1   
    83   82   83 1   
    84   82   85 1   
    85   82   94 1   
    86   83   84 2   
    87   83  102 1   
    88   85   86 1   
    89   85   95 1   
    90   85   96 1   
    91   86   87 ar  
    92   86   88 ar  
    93   87   89 ar  
    94   87   97 1   
    95   88   90 ar  
    96   88   98 1   
    97   89   91 ar  
    98   89   99 1   
    99   90   91 ar  
   100   90  100 1   
   101   91   92 1   
   102   92  101 1   
   103  102  103 1   
   104  102  110 1   
   105  103  104 1   
   106  103  106 1   
   107  103  111 1   
   108  104  105 2   
   109  104  121 1   
   110  106  107 1   
   111  106  108 1   
   112  106  112 1   
   113  107  109 1   
   114  107  113 1   
   115  107  114 1   
   116  108  115 1   
   117  108  116 1   
   118  108  117 1   
   119  109  118 1   
   120  109  119 1   
   121  109  120 1   
   122  121  122 1   
   123  121  127 1   
   124  122  123 1   
   125  122  125 1   
   126  122  128 1   
   127  123  124 2   
   128  123  132 1   
   129  125  126 1   
   130  125  129 1   
   131  125  130 1   
   132  126  131 1   
   133  132  133 1   
   134  132  137 1   
   135  133  134 1   
   136  133  136 1   
   137  133  138 1   
   138  134  135 2   
   139  134  142 1   
   140  136  139 1   
   141  136  140 1   
   142  136  141 1   
   143  142  143 1   
   144  142  147 1   
   145  143  144 1   
   146  143  146 1   
   147  143  148 1   
   148  144  145 2   
   149  144  152 1   
   150  146  149 1   
   151  146  150 1   
   152  146  151 1   
   153  152  153 1   
   154  152  161 1   
   155  153  154 1   
   156  153  156 1   
   157  153  162 1   
   158  154  155 2   
   159  154  167 1   
   160  156  157 1   
   161  156  163 1   
   162  156  164 1   
   163  157  158 1   
   164  157  165 1   
   165  157  166 1   
   166  158  159 1   
   167  158  160 1   
   168  167  168 1   
   169  167  172 1   
   170  168  169 1   
   171  168  170 1   
   172  168  171 1   
   173  174  175 1   
   174  174  176 1   
   175  177  178 1   
   176  177  179 1   
@<TRIPOS>SUBSTRUCTURE
     1 MOL         1 TEMP              0 ****  ****    0 ROOT
