@<TRIPOS>MOLECULE
MOL
  189   185     1     0     0
SMALL
resp


@<TRIPOS>ATOM
      1 C1          0.2470   -4.3010    6.1430 c3        1 MOL     -0.412740
      2 C2          0.9130   -3.6700    4.9000 c         1 MOL      0.802982
      3 O1          1.0040   -2.4650    4.8280 o         1 MOL     -0.632735
      4 H1         -0.5270   -3.6320    6.5190 hc        1 MOL      0.097692
      5 H2         -0.1990   -5.2570    5.8710 hc        1 MOL      0.097692
      6 H3          0.9980   -4.4570    6.9180 hc        1 MOL      0.097692
      7 N1          1.2680   -4.5130    3.9130 n         1 MOL     -0.663793
      8 C3          1.7500   -3.9920    2.6100 c3        1 MOL      0.476754
      9 C4          1.4060   -4.9720    1.4820 c         1 MOL      0.493355
     10 O2          0.8130   -6.0340    1.7810 o         1 MOL     -0.606261
     11 C5          3.2830   -3.7100    2.8010 c3        1 MOL     -0.606944
     12 C6          3.9910   -3.0560    1.6020 c         1 MOL      0.794711
     13 O3          5.2440   -3.0970    1.5120 o         1 MOL     -0.668770
     14 O4          3.2930   -2.5660    0.7090 o         1 MOL     -0.668770
     15 H4          0.9850   -5.4790    3.8470 hn        1 MOL      0.311105
     16 H5          1.2190   -3.0810    2.3650 h1        1 MOL     -0.103066
     17 H6          3.8300   -4.6410    2.9760 hc        1 MOL      0.135171
     18 H7          3.4500   -3.1050    3.6920 hc        1 MOL      0.135171
     19 N2          1.4740   -4.5550    0.2190 n         1 MOL     -0.458980
     20 C7          1.2380   -5.4200   -0.9900 c3        1 MOL      0.095552
     21 C8          2.5090   -5.3840   -1.7530 c         1 MOL      0.440130
     22 O5          2.9470   -6.3750   -2.3680 o         1 MOL     -0.580469
     23 C9         -0.0080   -4.8800   -1.6970 c3        1 MOL      0.155587
     24 C10        -1.2660   -5.2440   -0.8160 c3        1 MOL     -0.180823
     25 C11        -0.0720   -5.5010   -3.1110 c3        1 MOL     -0.223354
     26 C12        -2.5740   -4.7510   -1.4480 c3        1 MOL     -0.244779
     27 H8          1.9560   -3.6760    0.0930 hn        1 MOL      0.377605
     28 H9          0.9850   -6.4630   -0.8040 h1        1 MOL      0.059934
     29 H10         0.1600   -3.8140   -1.8620 hc        1 MOL      0.076193
     30 H11        -1.0420   -4.7650    0.1420 hc        1 MOL      0.052235
     31 H12        -1.3120   -6.3260   -0.7720 hc        1 MOL      0.052235
     32 H13         0.8120   -5.4400   -3.7610 hc        1 MOL      0.048431
     33 H14        -0.3250   -6.5590   -3.0570 hc        1 MOL      0.048431
     34 H15        -0.8750   -5.0410   -3.6820 hc        1 MOL      0.048431
     35 H16        -2.8510   -5.2810   -2.3620 hc        1 MOL      0.096372
     36 H17        -3.4390   -4.8300   -0.7790 hc        1 MOL      0.096372
     37 H18        -2.4530   -3.7180   -1.7800 hc        1 MOL      0.096372
     38 N3          3.2090   -4.2280   -1.8800 n         1 MOL     -0.322452
     39 C13         4.0950   -3.7520   -3.0100 c3        1 MOL      0.092915
     40 C14         5.4420   -3.2160   -2.5320 c         1 MOL      0.297704
     41 O6          6.3020   -3.0990   -3.3670 o         1 MOL     -0.526695
     42 C15         3.3780   -2.6420   -3.7970 c3        1 MOL     -0.358781
     43 C16         2.6640   -1.5570   -2.9680 c         1 MOL      0.721665
     44 O7          2.9730   -1.2830   -1.7790 o         1 MOL     -0.692238
     45 O8          1.5950   -1.0740   -3.4140 o         1 MOL     -0.692238
     46 H19         3.1020   -3.4800   -1.2100 hn        1 MOL      0.179479
     47 H20         4.3210   -4.6210   -3.6250 h1        1 MOL      0.107289
     48 H21         2.7070   -3.2160   -4.4310 hc        1 MOL      0.103099
     49 H22         4.1180   -2.2040   -4.4670 hc        1 MOL      0.103099
     50 N4          5.7530   -3.0090   -1.2400 n         1 MOL     -0.005997
     51 C17         7.0500   -2.5800   -0.8600 c3        1 MOL     -0.385536
     52 C18         7.3920   -1.2200   -1.2220 c         1 MOL      0.534006
     53 O9          8.5490   -0.9210   -1.3630 o         1 MOL     -0.612544
     54 H23         5.0080   -3.0400   -0.5670 hn        1 MOL      0.051570
     55 H24         7.7170   -3.2270   -1.4340 h1        1 MOL      0.153792
     56 H25         7.0880   -2.6420    0.2250 h1        1 MOL      0.153792
     57 N5          6.4380   -0.3250   -1.5220 n         1 MOL     -0.085474
     58 C19         6.6120    0.9780   -2.1850 c3        1 MOL     -0.145109
     59 C20         6.8650    2.1320   -1.1560 c         1 MOL      0.403219
     60 O10         7.2990    3.2240   -1.5250 o         1 MOL     -0.538632
     61 C21         5.3830    1.4290   -3.0700 c3        1 MOL     -0.168571
     62 C22         4.1120    1.6540   -2.2510 c         1 MOL      0.755098
     63 O11         4.0220    1.2840   -1.0400 o         1 MOL     -0.703858
     64 O12         3.2200    2.3400   -2.8240 o         1 MOL     -0.703858
     65 H26         5.5110   -0.6820   -1.3350 hn        1 MOL      0.208971
     66 H27         7.4950    0.9090   -2.8180 h1        1 MOL      0.131529
     67 H28         5.2170    0.6790   -3.8330 hc        1 MOL      0.060955
     68 H29         5.6710    2.3700   -3.5570 hc        1 MOL      0.060955
     69 N6          6.6120    1.9660    0.1420 n         1 MOL     -0.181720
     70 C23         6.9680    2.9740    1.1450 c3        1 MOL     -0.119390
     71 C24         5.8090    3.9130    1.2890 c         1 MOL      0.517634
     72 O13         6.0110    5.0030    1.8360 o         1 MOL     -0.588917
     73 H30         6.2650    1.0680    0.4480 hn        1 MOL      0.131635
     74 H31         7.9150    3.4360    0.8640 h1        1 MOL      0.084205
     75 H32         7.1510    2.5010    2.1060 h1        1 MOL      0.084205
     76 N7          4.5990    3.6150    0.7570 n         1 MOL     -0.355344
     77 C25         3.3930    4.4070    0.9180 c3        1 MOL     -0.032739
     78 C26         2.2150    3.5030    1.3180 c         1 MOL      0.436021
     79 O14         2.2520    2.2950    1.1620 o         1 MOL     -0.479938
     80 C27         3.0680    5.2100   -0.3410 c3        1 MOL     -0.106819
     81 C28         4.1610    6.2940   -0.5250 c3        1 MOL     -0.192741
     82 C29         3.8030    7.4490   -1.4180 c         1 MOL      0.651427
     83 N8          3.9420    7.3300   -2.6860 n         1 MOL     -0.793766
     84 O15         3.3210    8.5250   -1.0170 o         1 MOL     -0.611953
     85 H33         4.5110    2.7140    0.3020 hn        1 MOL      0.337119
     86 H34         3.5620    5.0790    1.7560 h1        1 MOL      0.076437
     87 H35         2.1550    5.7570   -0.1290 hc        1 MOL      0.076436
     88 H36         2.9020    4.5630   -1.2050 hc        1 MOL      0.076436
     89 H37         5.0940    5.7800   -0.7470 hc        1 MOL      0.083551
     90 H38         4.1630    6.6630    0.4940 hc        1 MOL      0.083551
     91 H39         4.0780    6.3980   -3.0530 hn        1 MOL      0.370578
     92 H40         3.6820    8.1440   -3.2090 hn        1 MOL      0.370578
     93 N9          1.2160    4.1710    1.9090 n         1 MOL     -0.395681
     94 C30        -0.0460    3.5370    2.2560 c3        1 MOL      0.049055
     95 C31        -0.9920    3.6300    1.1050 c         1 MOL      0.420054
     96 O16        -1.1820    4.7700    0.6320 o         1 MOL     -0.597633
     97 C32        -0.7680    4.0690    3.5850 c3        1 MOL      0.285678
     98 C33        -1.9070    3.1830    4.1200 c3        1 MOL     -0.238464
     99 C34         0.2990    4.1400    4.6810 c3        1 MOL     -0.238464
    100 H41         1.3530    5.1560    2.0960 hn        1 MOL      0.288141
    101 H42         0.2420    2.4990    2.4220 h1        1 MOL      0.076007
    102 H43        -1.1600    5.0800    3.4740 hc        1 MOL     -0.039013
    103 H44        -2.1950    3.5560    5.1090 hc        1 MOL      0.040454
    104 H45        -2.6830    3.4160    3.3850 hc        1 MOL      0.040454
    105 H46        -1.6350    2.1350    4.0180 hc        1 MOL      0.040454
    106 H47        -0.0760    4.5290    5.6190 hc        1 MOL      0.040454
    107 H48         0.6240    3.1240    4.9150 hc        1 MOL      0.040454
    108 H49         1.1550    4.6960    4.2740 hc        1 MOL      0.040454
    109 N10        -1.5500    2.4790    0.7400 n         1 MOL     -0.101606
    110 C35        -2.7020    2.4770   -0.1480 c3        1 MOL      0.248991
    111 C36        -4.0880    2.2280    0.5620 c         1 MOL      0.009157
    112 O17        -4.1070    1.7160    1.6150 o         1 MOL     -0.050586
    113 C37        -2.3650    1.4890   -1.2460 c3        1 MOL     -0.025589
    114 C38        -3.4440    1.3030   -2.2650 c         1 MOL      0.728812
    115 N11        -3.5750    2.1870   -3.1740 n         1 MOL     -0.729371
    116 O18        -4.1990    0.3550   -2.2150 o         1 MOL     -0.586455
    117 H50        -1.1850    1.6490    1.1840 hn        1 MOL      0.039342
    118 H51        -2.7940    3.4250   -0.6840 h1        1 MOL     -0.014138
    119 H52        -2.2590    0.4710   -0.8750 hc        1 MOL      0.014782
    120 H53        -1.4140    1.7150   -1.7340 hc        1 MOL      0.014782
    121 H54        -2.9790    3.0060   -3.2590 hn        1 MOL      0.333703
    122 H55        -4.2490    1.9700   -3.8890 hn        1 MOL      0.333703
    123 N12        -5.2370    2.5920   -0.0020 n         1 MOL     -0.203208
    124 C39        -6.5500    2.3280    0.6900 c3        1 MOL      0.063483
    125 C40        -6.8160    0.8270    0.8700 c         1 MOL      0.392049
    126 O19        -7.5340    0.4260    1.8330 o         1 MOL     -0.558262
    127 C41        -7.6620    2.9490   -0.1160 c3        1 MOL     -0.261397
    128 C42        -7.7310    2.5170   -1.5600 ca        1 MOL      0.232955
    129 C43        -7.1410    3.3450   -2.5550 ca        1 MOL     -0.313262
    130 C44        -8.5000    1.3770   -1.9710 ca        1 MOL     -0.313262
    131 C45        -7.4610    3.0400   -3.9070 ca        1 MOL     -0.155804
    132 C46        -8.7300    1.0870   -3.3650 ca        1 MOL     -0.155804
    133 C47        -8.2480    1.9480   -4.3180 ca        1 MOL      0.220474
    134 O20        -8.4350    1.6880   -5.6840 oh        1 MOL     -0.433792
    135 H56        -5.2800    2.7840   -0.9910 hn        1 MOL      0.109659
    136 H57        -6.5320    2.8070    1.6610 h1        1 MOL      0.081606
    137 H58        -7.6870    4.0420   -0.1120 hc        1 MOL      0.081191
    138 H59        -8.5060    2.4930    0.4000 hc        1 MOL      0.081191
    139 H60        -6.6040    4.2510   -2.3160 ha        1 MOL      0.170075
    140 H61        -8.9910    0.7320   -1.2570 ha        1 MOL      0.170075
    141 H62        -7.1660    3.6940   -4.7220 ha        1 MOL      0.123635
    142 H63        -9.2870    0.2400   -3.7390 ha        1 MOL      0.123635
    143 H64        -7.9900    2.3360   -6.2450 ho        1 MOL      0.323239
    144 N13        -6.3130   -0.0320   -0.0600 n         1 MOL      0.032987
    145 C48        -6.4670   -1.4810    0.2440 c3        1 MOL     -0.291425
    146 C49        -5.5900   -1.9530    1.4540 c         1 MOL      0.548890
    147 O21        -5.8550   -3.0200    2.0160 o         1 MOL     -0.549330
    148 C50        -5.9180   -2.2590   -1.0050 c3        1 MOL      0.077914
    149 C51        -6.5870   -1.8690   -2.3300 c3        1 MOL     -0.189474
    150 C52        -6.0760   -2.7830   -3.4260 c         1 MOL      0.675104
    151 O22        -5.8280   -2.2760   -4.5810 o         1 MOL     -0.727260
    152 O23        -5.7920   -3.9700   -3.1960 o         1 MOL     -0.727260
    153 H65        -5.8280    0.2490   -0.8980 hn        1 MOL      0.232135
    154 H66        -7.5260   -1.5540    0.4860 h1        1 MOL      0.120719
    155 H67        -6.1870   -3.3080   -0.8360 hc        1 MOL      0.014214
    156 H68        -4.8480   -2.2180   -1.2090 hc        1 MOL      0.014214
    157 H69        -6.3180   -0.8320   -2.5420 hc        1 MOL      0.043174
    158 H70        -7.6370   -2.0260   -2.1470 hc        1 MOL      0.043174
    159 N14        -4.5990   -1.1970    1.8280 n         1 MOL     -0.243681
    160 C53        -3.8110   -1.5130    2.9610 c3        1 MOL      0.236339
    161 C54        -4.3550   -0.8570    4.2250 c         1 MOL      0.424873
    162 O24        -4.6630   -1.5320    5.2240 o         1 MOL     -0.586250
    163 C55        -2.3850   -0.9680    2.7870 c3        1 MOL     -0.395575
    164 C56        -1.6130   -1.7620    1.7060 c3        1 MOL      0.251455
    165 C57        -0.3100   -1.1130    1.2940 c         1 MOL      0.908902
    166 O25         0.4650   -1.7200    0.6330 o         1 MOL     -0.831789
    167 O26        -0.1070    0.1140    1.4920 o         1 MOL     -0.831789
    168 H71        -4.5250   -0.2250    1.5600 hn        1 MOL     -0.062569
    169 H72        -3.8650   -2.5840    3.1470 h1        1 MOL      0.021298
    170 H73        -1.8370   -1.1190    3.7170 hc        1 MOL      0.094878
    171 H74        -2.4310    0.0810    2.4780 hc        1 MOL      0.094878
    172 H75        -2.1750   -1.9870    0.7970 hc        1 MOL     -0.034050
    173 H76        -1.3900   -2.7470    2.1130 hc        1 MOL     -0.034050
    174 N15        -4.6110    0.4300    4.1380 n         1 MOL     -0.015554
    175 C58        -4.9960    1.2820    5.2950 c3        1 MOL     -0.157683
    176 H77        -5.4830    0.6680    6.0520 h1        1 MOL      0.068761
    177 H78        -4.1040    1.7430    5.7200 h1        1 MOL      0.068761
    178 H79        -5.6830    2.0590    4.9610 h1        1 MOL      0.068761
    179 H80        -4.4050    0.8750    3.2550 hn        1 MOL     -0.056677
    180 Ca1         2.4540   -0.1400    0.4160 Ca        1 MOL      1.715968
    181 O27         2.2760   -0.5040    3.1160 oh        1 MOL     -0.892351
    182 O28         1.2350    1.1070   -1.8150 oh        1 MOL     -0.892351
    183 H81         1.6960   -1.1690    3.4950 ho        1 MOL      0.429883
    184 H82         1.2710    0.4180   -2.4790 ho        1 MOL      0.429883
    185 H83         2.1890    0.2450    3.7060 ho        1 MOL      0.429883
    186 H84         1.9250    1.7240   -2.0860 ho        1 MOL      0.429883
    187 O29         4.7300    0.4040    1.7330 oh        1 MOL     -0.892351
    188 H85         5.5230   -0.1360    1.7760 ho        1 MOL      0.429883
    189 H86         4.6480    0.7810    2.6050 ho        1 MOL      0.429883
@<TRIPOS>BOND
     1    1    2 1   
     2    1    4 1   
     3    1    5 1   
     4    1    6 1   
     5    2    3 2   
     6    2    7 1   
     7    7    8 1   
     8    7   15 1   
     9    8    9 1   
    10    8   11 1   
    11    8   16 1   
    12    9   10 2   
    13    9   19 1   
    14   11   12 1   
    15   11   17 1   
    16   11   18 1   
    17   12   13 1   
    18   12   14 1   
    19   19   20 1   
    20   19   27 1   
    21   20   21 1   
    22   20   23 1   
    23   20   28 1   
    24   21   22 2   
    25   21   38 1   
    26   23   24 1   
    27   23   25 1   
    28   23   29 1   
    29   24   26 1   
    30   24   30 1   
    31   24   31 1   
    32   25   32 1   
    33   25   33 1   
    34   25   34 1   
    35   26   35 1   
    36   26   36 1   
    37   26   37 1   
    38   38   39 1   
    39   38   46 1   
    40   39   40 1   
    41   39   42 1   
    42   39   47 1   
    43   40   41 2   
    44   40   50 1   
    45   42   43 1   
    46   42   48 1   
    47   42   49 1   
    48   43   44 1   
    49   43   45 1   
    50   50   51 1   
    51   50   54 1   
    52   51   52 1   
    53   51   55 1   
    54   51   56 1   
    55   52   53 2   
    56   52   57 1   
    57   57   58 1   
    58   57   65 1   
    59   58   59 1   
    60   58   61 1   
    61   58   66 1   
    62   59   60 2   
    63   59   69 1   
    64   61   62 1   
    65   61   67 1   
    66   61   68 1   
    67   62   63 1   
    68   62   64 1   
    69   69   70 1   
    70   69   73 1   
    71   70   71 1   
    72   70   74 1   
    73   70   75 1   
    74   71   72 2   
    75   71   76 1   
    76   76   77 1   
    77   76   85 1   
    78   77   78 1   
    79   77   80 1   
    80   77   86 1   
    81   78   79 2   
    82   78   93 1   
    83   80   81 1   
    84   80   87 1   
    85   80   88 1   
    86   81   82 1   
    87   81   89 1   
    88   81   90 1   
    89   82   83 1   
    90   82   84 2   
    91   83   91 1   
    92   83   92 1   
    93   93   94 1   
    94   93  100 1   
    95   94   95 1   
    96   94   97 1   
    97   94  101 1   
    98   95   96 2   
    99   95  109 1   
   100   97   98 1   
   101   97   99 1   
   102   97  102 1   
   103   98  103 1   
   104   98  104 1   
   105   98  105 1   
   106   99  106 1   
   107   99  107 1   
   108   99  108 1   
   109  109  110 1   
   110  109  117 1   
   111  110  111 1   
   112  110  113 1   
   113  110  118 1   
   114  111  112 2   
   115  111  123 1   
   116  113  114 1   
   117  113  119 1   
   118  113  120 1   
   119  114  115 1   
   120  114  116 2   
   121  115  121 1   
   122  115  122 1   
   123  123  124 1   
   124  123  135 1   
   125  124  125 1   
   126  124  127 1   
   127  124  136 1   
   128  125  126 2   
   129  125  144 1   
   130  127  128 1   
   131  127  137 1   
   132  127  138 1   
   133  128  129 ar  
   134  128  130 ar  
   135  129  131 ar  
   136  129  139 1   
   137  130  132 ar  
   138  130  140 1   
   139  131  133 ar  
   140  131  141 1   
   141  132  133 ar  
   142  132  142 1   
   143  133  134 1   
   144  134  143 1   
   145  144  145 1   
   146  144  153 1   
   147  145  146 1   
   148  145  148 1   
   149  145  154 1   
   150  146  147 2   
   151  146  159 1   
   152  148  149 1   
   153  148  155 1   
   154  148  156 1   
   155  149  150 1   
   156  149  157 1   
   157  149  158 1   
   158  150  151 1   
   159  150  152 1   
   160  159  160 1   
   161  159  168 1   
   162  160  161 1   
   163  160  163 1   
   164  160  169 1   
   165  161  162 2   
   166  161  174 1   
   167  163  164 1   
   168  163  170 1   
   169  163  171 1   
   170  164  165 1   
   171  164  172 1   
   172  164  173 1   
   173  165  166 1   
   174  165  167 1   
   175  174  175 1   
   176  174  179 1   
   177  175  176 1   
   178  175  177 1   
   179  175  178 1   
   180  181  183 1   
   181  181  185 1   
   182  182  184 1   
   183  182  186 1   
   184  187  188 1   
   185  187  189 1   
@<TRIPOS>SUBSTRUCTURE
     1 MOL         1 TEMP              0 ****  ****    0 ROOT
