@<TRIPOS>MOLECULE
MOL
  189   185     1     0     0
SMALL
resp


@<TRIPOS>ATOM
      1 C1          0.8180   -3.2240    6.1760 c3        1 MOL     -0.390261
      2 C2          1.0220   -2.9550    4.6810 c         1 MOL      0.801044
      3 O1          0.5880   -1.9460    4.0880 o         1 MOL     -0.625378
      4 H1          1.7150   -3.6870    6.5870 hc        1 MOL      0.095362
      5 H2          0.6250   -2.2830    6.6920 hc        1 MOL      0.095362
      6 H3         -0.0310   -3.8940    6.3130 hc        1 MOL      0.095362
      7 N1          1.6600   -3.9470    4.0340 n         1 MOL     -0.731064
      8 C3          2.1940   -3.7480    2.6390 c3        1 MOL      0.520636
      9 C4          1.7610   -4.8600    1.6610 c         1 MOL      0.385508
     10 O2          1.6210   -6.1050    2.0020 o         1 MOL     -0.601897
     11 C5          3.6850   -3.5630    2.7460 c3        1 MOL     -0.289079
     12 C6          4.3390   -3.3890    1.4000 c         1 MOL      0.762565
     13 O3          3.8160   -2.5240    0.6930 o         1 MOL     -0.658844
     14 O4          5.1970   -4.1540    1.0110 o         1 MOL     -0.658844
     15 H4          2.1580   -4.6640    4.5420 hn        1 MOL      0.343647
     16 H5          1.8440   -2.7750    2.2840 h1        1 MOL     -0.108799
     17 H6          4.1410   -4.3860    3.3040 hc        1 MOL      0.000417
     18 H7          3.7550   -2.6310    3.3140 hc        1 MOL      0.000417
     19 N2          1.7930   -4.5870    0.3500 n         1 MOL     -0.201505
     20 C7          1.5400   -5.5740   -0.7380 c3        1 MOL     -0.013981
     21 C8          2.5980   -5.2470   -1.8270 c         1 MOL      0.435988
     22 O5          2.8910   -6.0900   -2.6470 o         1 MOL     -0.575038
     23 C9          0.0630   -5.5880   -1.2620 c3        1 MOL      0.022432
     24 C10        -0.7730   -6.5560   -0.3260 c3        1 MOL     -0.112294
     25 C11        -0.0610   -6.0240   -2.7390 c3        1 MOL     -0.136461
     26 C12        -2.2640   -6.3790   -0.3270 c3        1 MOL     -0.139109
     27 H8          1.8330   -3.6120    0.1010 hn        1 MOL      0.258443
     28 H9          1.7190   -6.5540   -0.2930 h1        1 MOL      0.069025
     29 H10        -0.2620   -4.5550   -1.1540 hc        1 MOL      0.070718
     30 H11        -0.4870   -6.3780    0.7090 hc        1 MOL      0.045078
     31 H12        -0.5510   -7.6170   -0.4530 hc        1 MOL      0.045078
     32 H13         0.3790   -5.3790   -3.4980 hc        1 MOL      0.040310
     33 H14         0.4090   -6.9980   -2.8620 hc        1 MOL      0.040310
     34 H15        -1.0910   -6.1780   -3.0370 hc        1 MOL      0.040310
     35 H16        -2.5630   -5.3990    0.0320 hc        1 MOL      0.042325
     36 H17        -2.5620   -6.5290   -1.3710 hc        1 MOL      0.042325
     37 H18        -2.6860   -7.1700    0.2760 hc        1 MOL      0.042325
     38 N3          3.1740   -4.0400   -1.9660 n         1 MOL     -0.118679
     39 C13         3.9500   -3.6360   -3.2100 c3        1 MOL     -0.136642
     40 C14         5.3800   -3.0170   -2.8790 c         1 MOL      0.468498
     41 O6          6.1000   -2.7190   -3.7710 o         1 MOL     -0.558075
     42 C15         3.0530   -2.6400   -3.9710 c3        1 MOL      0.063858
     43 C16         2.4560   -1.4530   -3.2120 c         1 MOL      0.542135
     44 O7          3.2270   -1.0550   -2.2270 o         1 MOL     -0.615812
     45 O8          1.2960   -1.0570   -3.4510 o         1 MOL     -0.615812
     46 H19         3.0520   -3.3400   -1.2490 hn        1 MOL      0.114902
     47 H20         4.1320   -4.4920   -3.8670 h1        1 MOL      0.118290
     48 H21         2.1820   -3.2150   -4.2770 hc        1 MOL     -0.002782
     49 H22         3.4440   -2.3440   -4.9480 hc        1 MOL     -0.002782
     50 N4          5.8230   -2.8670   -1.5840 n         1 MOL     -0.200910
     51 C17         7.1250   -2.3390   -1.1240 c3        1 MOL      0.029690
     52 C18         7.3740   -0.8610   -1.3460 c         1 MOL      0.277200
     53 O9          8.5350   -0.3980   -1.3250 o         1 MOL     -0.628569
     54 H23         5.1910   -3.0590   -0.8210 hn        1 MOL      0.040576
     55 H24         7.9000   -3.0080   -1.5170 h1        1 MOL      0.060291
     56 H25         7.2630   -2.4740   -0.0520 h1        1 MOL      0.060291
     57 N5          6.4370   -0.0610   -1.7590 n         1 MOL      0.237667
     58 C19         6.7430    1.2550   -2.3870 c3        1 MOL     -0.214026
     59 C20         6.9610    2.3830   -1.3240 c         1 MOL      0.523641
     60 O10         7.4210    3.5140   -1.6350 o         1 MOL     -0.577566
     61 C21         5.5810    1.5520   -3.2950 c3        1 MOL     -0.153772
     62 C22         4.2320    1.7590   -2.5990 c         1 MOL      0.675585
     63 O11         4.2470    1.6940   -1.3550 o         1 MOL     -0.679424
     64 O12         3.1710    2.0800   -3.2610 o         1 MOL     -0.679424
     65 H26         5.5340   -0.5100   -1.8250 hn        1 MOL     -0.017028
     66 H27         7.6670    1.2250   -2.9710 h1        1 MOL      0.142378
     67 H28         5.4690    0.7630   -4.0340 hc        1 MOL      0.051743
     68 H29         5.8260    2.4700   -3.8500 hc        1 MOL      0.051743
     69 N6          6.8720    2.0990   -0.0520 n         1 MOL     -0.232632
     70 C23         7.1900    2.9820    1.0850 c3        1 MOL     -0.284887
     71 C24         6.1420    4.0350    1.4820 c         1 MOL      0.638296
     72 O13         6.4320    4.8290    2.3520 o         1 MOL     -0.576678
     73 H30         6.4710    1.2110    0.2260 hn        1 MOL      0.246513
     74 H31         8.1700    3.4320    0.9860 h1        1 MOL      0.108872
     75 H32         7.2370    2.3170    1.9460 h1        1 MOL      0.108872
     76 N7          4.9460    3.9240    0.8380 n         1 MOL     -0.444741
     77 C25         3.7320    4.5430    1.2400 c3        1 MOL      0.246213
     78 C26         2.6530    3.5220    1.5590 c         1 MOL      0.331370
     79 O14         2.8980    2.3460    1.4660 o         1 MOL     -0.409975
     80 C27         3.2950    5.5850    0.1560 c3        1 MOL     -0.226710
     81 C28         4.2900    6.7380    0.0180 c3        1 MOL     -0.233593
     82 C29         3.7160    7.8750   -0.8690 c         1 MOL      0.708224
     83 N8          4.1670    7.7900   -2.0920 n         1 MOL     -0.804403
     84 O15         3.2390    8.8680   -0.4060 o         1 MOL     -0.589429
     85 H33         4.8810    3.1360    0.2120 hn        1 MOL      0.280511
     86 H34         4.0290    5.0130    2.1820 h1        1 MOL      0.016384
     87 H35         2.2940    5.9170    0.4350 hc        1 MOL      0.092624
     88 H36         3.2260    5.0930   -0.8130 hc        1 MOL      0.092624
     89 H37         5.2790    6.4880   -0.3680 hc        1 MOL      0.087267
     90 H38         4.4500    7.1310    1.0210 hc        1 MOL      0.087267
     91 H39         4.8310    7.0510   -2.2650 hn        1 MOL      0.361894
     92 H40         3.9900    8.5280   -2.7520 hn        1 MOL      0.361894
     93 N9          1.3720    3.8960    1.9990 n         1 MOL     -0.453235
     94 C30         0.2520    2.9270    2.0600 c3        1 MOL      0.002002
     95 C31        -1.0720    3.4080    1.3580 c         1 MOL      0.478289
     96 O16        -1.4680    4.5480    1.5040 o         1 MOL     -0.572574
     97 C32         0.1380    2.5410    3.5630 c3        1 MOL      0.329162
     98 C33        -0.3430    3.7310    4.3740 c3        1 MOL     -0.385708
     99 C34        -0.8160    1.3770    3.7830 c3        1 MOL     -0.385708
    100 H41         1.2120    4.8450    2.3010 hn        1 MOL      0.290742
    101 H42         0.4800    2.0140    1.5140 h1        1 MOL      0.162628
    102 H43         1.1720    2.3640    3.8680 hc        1 MOL     -0.038569
    103 H44        -0.4320    3.4090    5.4030 hc        1 MOL      0.079191
    104 H45         0.3270    4.5860    4.3020 hc        1 MOL      0.079191
    105 H46        -1.3870    3.9220    4.1330 hc        1 MOL      0.079191
    106 H47        -0.3300    0.5780    3.2100 hc        1 MOL      0.079191
    107 H48        -0.7870    1.1410    4.8390 hc        1 MOL      0.079191
    108 H49        -1.7960    1.6310    3.3780 hc        1 MOL      0.079191
    109 N10        -1.9140    2.4690    0.8010 n         1 MOL     -0.298178
    110 C35        -3.1370    2.7490    0.0390 c3        1 MOL      0.346910
    111 C36        -4.3300    2.1450    0.8550 c         1 MOL     -0.046894
    112 O17        -4.0630    1.2110    1.6480 o         1 MOL     -0.120969
    113 C37        -3.0040    2.2120   -1.3520 c3        1 MOL     -0.526629
    114 C38        -4.3340    2.1070   -2.0360 c         1 MOL      0.935830
    115 N11        -4.9580    3.1180   -2.5090 n         1 MOL     -0.838270
    116 O18        -4.8290    1.0250   -2.0700 o         1 MOL     -0.643141
    117 H50        -1.6540    1.5020    0.9190 hn        1 MOL      0.251862
    118 H51        -3.2160    3.8240   -0.1000 h1        1 MOL      0.014109
    119 H52        -2.6100    1.2180   -1.1430 hc        1 MOL      0.152546
    120 H53        -2.2600    2.7200   -1.9620 hc        1 MOL      0.152546
    121 H54        -4.5200    4.0210   -2.4170 hn        1 MOL      0.363242
    122 H55        -5.8950    3.0070   -2.8740 hn        1 MOL      0.363242
    123 N12        -5.5480    2.6590    0.6980 n         1 MOL     -0.158847
    124 C39        -6.7710    2.0960    1.3080 c3        1 MOL      0.196414
    125 C40        -7.0230    0.5950    1.1540 c         1 MOL      0.285874
    126 O19        -7.6640    0.0550    2.0500 o         1 MOL     -0.572265
    127 C41        -7.9370    2.8940    0.9310 c3        1 MOL     -0.272782
    128 C42        -8.1470    3.1940   -0.5450 ca        1 MOL      0.211137
    129 C43        -8.8500    2.2230   -1.2740 ca        1 MOL     -0.390737
    130 C44        -7.6760    4.3900   -1.1790 ca        1 MOL     -0.390737
    131 C45        -9.1040    2.4520   -2.6900 ca        1 MOL     -0.060782
    132 C46        -7.8140    4.4710   -2.5960 ca        1 MOL     -0.060782
    133 C47        -8.7040    3.6410   -3.2880 ca        1 MOL      0.206050
    134 O20        -9.1260    4.0190   -4.5200 oh        1 MOL     -0.533900
    135 H56        -5.7410    3.2660   -0.0890 hn        1 MOL      0.090966
    136 H57        -6.5880    2.3000    2.3590 h1        1 MOL      0.052874
    137 H58        -7.7250    3.8390    1.4420 hc        1 MOL      0.090659
    138 H59        -8.8720    2.5550    1.3890 hc        1 MOL      0.090659
    139 H60        -9.2720    1.3780   -0.7650 ha        1 MOL      0.199198
    140 H61        -7.2290    5.1820   -0.5940 ha        1 MOL      0.199198
    141 H62        -9.8300    1.8590   -3.2300 ha        1 MOL      0.098841
    142 H63        -7.4550    5.3700   -3.0900 ha        1 MOL      0.098841
    143 H64        -9.9480    3.6040   -4.7870 ho        1 MOL      0.407136
    144 N13        -6.5940   -0.0800    0.0930 n         1 MOL      0.086176
    145 C48        -6.7770   -1.5240   -0.0870 c3        1 MOL     -0.152924
    146 C49        -5.6730   -2.2900    0.6820 c         1 MOL      0.407584
    147 O21        -5.7980   -3.4940    1.0050 o         1 MOL     -0.543732
    148 C50        -6.7790   -1.8080   -1.6040 c3        1 MOL      0.323855
    149 C51        -7.4520   -3.0660   -2.0400 c3        1 MOL     -0.302874
    150 C52        -7.1410   -3.4230   -3.5230 c         1 MOL      0.723844
    151 O22        -5.9860   -3.3360   -3.9490 o         1 MOL     -0.713469
    152 O23        -8.0770   -3.7780   -4.2770 o         1 MOL     -0.713469
    153 H65        -6.0930    0.3930   -0.6490 hn        1 MOL      0.125117
    154 H66        -7.7620   -1.8170    0.2700 h1        1 MOL      0.097293
    155 H67        -5.7570   -1.8610   -1.9830 hc        1 MOL     -0.048003
    156 H68        -7.3410   -0.9270   -1.9270 hc        1 MOL     -0.048003
    157 H69        -8.4970   -2.9000   -1.8120 hc        1 MOL      0.015707
    158 H70        -7.1470   -3.8660   -1.3700 hc        1 MOL      0.015707
    159 N14        -4.5600   -1.6800    1.0620 n         1 MOL     -0.201783
    160 C53        -3.5600   -2.2490    2.0000 c3        1 MOL      0.002776
    161 C54        -3.8900   -1.9780    3.5190 c         1 MOL      0.398799
    162 O24        -3.7330   -2.8240    4.4150 o         1 MOL     -0.548516
    163 C55        -2.1340   -1.6930    1.7300 c3        1 MOL      0.248227
    164 C56        -1.4180   -2.1460    0.4750 c3        1 MOL     -0.224046
    165 C57        -0.1690   -1.3280    0.2040 c         1 MOL      0.975032
    166 O25        -0.2740   -0.1060    0.1930 o         1 MOL     -0.858362
    167 O26         0.9130   -1.8380   -0.1210 o         1 MOL     -0.858362
    168 H71        -4.4690   -0.7310    0.7300 hn        1 MOL      0.098355
    169 H72        -3.4670   -3.3300    1.9460 h1        1 MOL      0.077256
    170 H73        -1.5870   -2.1560    2.5380 hc        1 MOL     -0.051385
    171 H74        -2.0560   -0.6050    1.8100 hc        1 MOL     -0.051385
    172 H75        -2.0980   -1.9930   -0.3650 hc        1 MOL      0.056094
    173 H76        -1.0990   -3.1910    0.4710 hc        1 MOL      0.056094
    174 N15        -4.4130   -0.7750    3.7130 n         1 MOL     -0.034365
    175 C58        -4.7660   -0.2160    5.0660 c3        1 MOL     -0.205405
    176 H77        -4.1590   -0.7030    5.8290 h1        1 MOL      0.079000
    177 H78        -4.5720    0.8570    5.0780 h1        1 MOL      0.079000
    178 H79        -5.8210   -0.3970    5.2710 h1        1 MOL      0.079000
    179 H80        -4.3740   -0.1020    2.9560 hn        1 MOL      0.002379
    180 Ca1         2.8660   -0.0080    0.0280 Ca        1 MOL      1.741537
    181 O27         5.0670    0.0800    1.5590 oh        1 MOL     -0.943122
    182 H81         4.7200    0.1230    2.4560 ho        1 MOL      0.437638
    183 H82         5.9660   -0.2240    1.6630 ho        1 MOL      0.437638
    184 O28         2.3070   -0.2730    2.7000 oh        1 MOL     -0.943122
    185 H83         2.8790   -0.1220    3.4540 ho        1 MOL      0.437638
    186 H84         1.4610   -0.5050    3.0880 ho        1 MOL      0.437638
    187 O29         1.3960    1.9940   -1.2230 oh        1 MOL     -0.943122
    188 H85         0.6450    1.7180   -1.7320 ho        1 MOL      0.437638
    189 H86         2.0790    2.1600   -1.8760 ho        1 MOL      0.437638
@<TRIPOS>BOND
     1    1    2 1   
     2    1    4 1   
     3    1    5 1   
     4    1    6 1   
     5    2    3 2   
     6    2    7 1   
     7    7    8 1   
     8    7   15 1   
     9    8    9 1   
    10    8   11 1   
    11    8   16 1   
    12    9   10 2   
    13    9   19 1   
    14   11   12 1   
    15   11   17 1   
    16   11   18 1   
    17   12   13 1   
    18   12   14 1   
    19   19   20 1   
    20   19   27 1   
    21   20   21 1   
    22   20   23 1   
    23   20   28 1   
    24   21   22 2   
    25   21   38 1   
    26   23   24 1   
    27   23   25 1   
    28   23   29 1   
    29   24   26 1   
    30   24   30 1   
    31   24   31 1   
    32   25   32 1   
    33   25   33 1   
    34   25   34 1   
    35   26   35 1   
    36   26   36 1   
    37   26   37 1   
    38   38   39 1   
    39   38   46 1   
    40   39   40 1   
    41   39   42 1   
    42   39   47 1   
    43   40   41 2   
    44   40   50 1   
    45   42   43 1   
    46   42   48 1   
    47   42   49 1   
    48   43   44 1   
    49   43   45 1   
    50   50   51 1   
    51   50   54 1   
    52   51   52 1   
    53   51   55 1   
    54   51   56 1   
    55   52   53 2   
    56   52   57 1   
    57   57   58 1   
    58   57   65 1   
    59   58   59 1   
    60   58   61 1   
    61   58   66 1   
    62   59   60 2   
    63   59   69 1   
    64   61   62 1   
    65   61   67 1   
    66   61   68 1   
    67   62   63 1   
    68   62   64 1   
    69   69   70 1   
    70   69   73 1   
    71   70   71 1   
    72   70   74 1   
    73   70   75 1   
    74   71   72 2   
    75   71   76 1   
    76   76   77 1   
    77   76   85 1   
    78   77   78 1   
    79   77   80 1   
    80   77   86 1   
    81   78   79 2   
    82   78   93 1   
    83   80   81 1   
    84   80   87 1   
    85   80   88 1   
    86   81   82 1   
    87   81   89 1   
    88   81   90 1   
    89   82   83 1   
    90   82   84 2   
    91   83   91 1   
    92   83   92 1   
    93   93   94 1   
    94   93  100 1   
    95   94   95 1   
    96   94   97 1   
    97   94  101 1   
    98   95   96 2   
    99   95  109 1   
   100   97   98 1   
   101   97   99 1   
   102   97  102 1   
   103   98  103 1   
   104   98  104 1   
   105   98  105 1   
   106   99  106 1   
   107   99  107 1   
   108   99  108 1   
   109  109  110 1   
   110  109  117 1   
   111  110  111 1   
   112  110  113 1   
   113  110  118 1   
   114  111  112 2   
   115  111  123 1   
   116  113  114 1   
   117  113  119 1   
   118  113  120 1   
   119  114  115 1   
   120  114  116 2   
   121  115  121 1   
   122  115  122 1   
   123  123  124 1   
   124  123  135 1   
   125  124  125 1   
   126  124  127 1   
   127  124  136 1   
   128  125  126 2   
   129  125  144 1   
   130  127  128 1   
   131  127  137 1   
   132  127  138 1   
   133  128  129 ar  
   134  128  130 ar  
   135  129  131 ar  
   136  129  139 1   
   137  130  132 ar  
   138  130  140 1   
   139  131  133 ar  
   140  131  141 1   
   141  132  133 ar  
   142  132  142 1   
   143  133  134 1   
   144  134  143 1   
   145  144  145 1   
   146  144  153 1   
   147  145  146 1   
   148  145  148 1   
   149  145  154 1   
   150  146  147 2   
   151  146  159 1   
   152  148  149 1   
   153  148  155 1   
   154  148  156 1   
   155  149  150 1   
   156  149  157 1   
   157  149  158 1   
   158  150  151 1   
   159  150  152 1   
   160  159  160 1   
   161  159  168 1   
   162  160  161 1   
   163  160  163 1   
   164  160  169 1   
   165  161  162 2   
   166  161  174 1   
   167  163  164 1   
   168  163  170 1   
   169  163  171 1   
   170  164  165 1   
   171  164  172 1   
   172  164  173 1   
   173  165  166 1   
   174  165  167 1   
   175  174  175 1   
   176  174  179 1   
   177  175  176 1   
   178  175  177 1   
   179  175  178 1   
   180  181  182 1   
   181  181  183 1   
   182  184  185 1   
   183  184  186 1   
   184  187  188 1   
   185  187  189 1   
@<TRIPOS>SUBSTRUCTURE
     1 MOL         1 TEMP              0 ****  ****    0 ROOT
