@<TRIPOS>MOLECULE
MOL
  179   176     1     0     0
SMALL
resp


@<TRIPOS>ATOM
      1 C1          2.7050    2.9520    4.2860 c3        1 MOL     -0.486610
      2 C2          1.7860    2.7410    3.1230 c         1 MOL      0.758302
      3 O1          2.3240    2.7050    1.9870 o         1 MOL     -0.591963
      4 H1          3.7050    3.1830    3.9200 hc        1 MOL      0.120144
      5 H2          2.3400    3.7800    4.8930 hc        1 MOL      0.120144
      6 H3          2.7410    2.0460    4.8900 hc        1 MOL      0.120144
      7 N1          0.4840    2.7350    3.3650 n         1 MOL     -0.631742
      8 C3         -0.5250    2.4710    2.3210 c3        1 MOL      0.169012
      9 C4         -0.9220    3.7240    1.5600 c         1 MOL      0.355914
     10 O2         -1.9380    4.3570    1.9760 o         1 MOL     -0.507941
     11 C5         -1.7240    1.7100    2.9580 c3        1 MOL     -0.004881
     12 C6         -2.7600    1.3360    1.8520 c         1 MOL      0.601940
     13 O3         -3.9300    1.0510    2.2620 o         1 MOL     -0.687750
     14 O4         -2.4170    1.1850    0.6980 o         1 MOL     -0.687750
     15 H4          0.1380    2.7250    4.3110 hn        1 MOL      0.324940
     16 H5         -0.0830    1.7440    1.6440 h1        1 MOL     -0.010009
     17 H6         -2.2060    2.2830    3.7550 hc        1 MOL      0.021292
     18 H7         -1.4370    0.8130    3.4940 hc        1 MOL      0.021292
     19 N2         -0.2870    4.0640    0.4330 n         1 MOL     -0.193517
     20 C7         -0.4030    5.3590   -0.2400 c3        1 MOL     -0.036171
     21 C8         -1.5140    5.4670   -1.2900 c         1 MOL      0.506967
     22 O5         -1.9040    6.5480   -1.6090 o         1 MOL     -0.547135
     23 C9          0.9500    5.8390   -0.7560 c3        1 MOL     -0.149967
     24 C10         1.9070    6.4420    0.2950 c3        1 MOL      0.243306
     25 C11         3.2080    6.8240   -0.3570 c3        1 MOL     -0.028958
     26 C12         4.1670    7.5770    0.5460 c3        1 MOL     -0.152244
     27 N3          4.7170    6.7630    1.6200 n4        1 MOL     -0.255447
     28 H8          0.4290    3.4350    0.0890 hn        1 MOL      0.292380
     29 H9         -0.7010    6.0940    0.5020 h1        1 MOL      0.079864
     30 H10         0.7370    6.5580   -1.5470 hc        1 MOL      0.050538
     31 H11         1.5630    5.0470   -1.1940 hc        1 MOL      0.050538
     32 H12         2.0820    5.7520    1.1180 hc        1 MOL     -0.061962
     33 H13         1.4500    7.3580    0.6710 hc        1 MOL     -0.061962
     34 H14         2.9630    7.3260   -1.2940 hc        1 MOL      0.052772
     35 H15         3.6760    5.8740   -0.5930 hc        1 MOL      0.052772
     36 H16         3.6130    8.3830    1.0320 hx        1 MOL      0.125222
     37 H17         4.9800    7.9410   -0.0950 hx        1 MOL      0.125222
     38 H18         3.9500    6.4220    2.1920 hn        1 MOL      0.311946
     39 H19         5.2860    5.9940    1.2920 hn        1 MOL      0.311946
     40 H20         5.2890    7.3540    2.1930 hn        1 MOL      0.311946
     41 N4         -1.9330    4.3290   -1.7990 n         1 MOL     -0.339727
     42 C13        -3.1890    4.2120   -2.5950 c3        1 MOL      0.047563
     43 C14        -4.4940    4.0630   -1.7360 c         1 MOL      0.431817
     44 O6         -5.5340    4.3160   -2.2820 o         1 MOL     -0.524838
     45 C15        -3.0890    3.1780   -3.7820 c3        1 MOL     -0.295926
     46 C16        -2.7790    1.7150   -3.3710 c         1 MOL      0.715433
     47 O7         -2.6790    0.8500   -4.2670 o         1 MOL     -0.692549
     48 O8         -2.8020    1.4360   -2.1450 o         1 MOL     -0.692549
     49 H21        -1.5070    3.4420   -1.5450 hn        1 MOL      0.259004
     50 H22        -3.2940    5.1170   -3.1950 h1        1 MOL      0.100050
     51 H23        -2.3040    3.4900   -4.4710 hc        1 MOL      0.091032
     52 H24        -4.0070    3.1960   -4.3670 hc        1 MOL      0.091032
     53 N5         -4.3840    3.6900   -0.4570 n         1 MOL     -0.116088
     54 C17        -5.5110    3.3430    0.4500 c3        1 MOL     -0.149809
     55 C18        -6.2860    2.1560    0.0650 c         1 MOL      0.527078
     56 O9         -7.4760    2.0520    0.3860 o         1 MOL     -0.560095
     57 H25        -3.4890    3.3370   -0.1430 hn        1 MOL      0.032384
     58 H26        -6.2020    4.1660    0.6390 h1        1 MOL      0.110331
     59 H27        -5.0720    3.0950    1.4070 h1        1 MOL      0.110331
     60 N6         -5.7090    1.2600   -0.7680 n         1 MOL     -0.183380
     61 C19        -6.3130   -0.0160   -1.1580 c3        1 MOL     -0.405382
     62 C20        -6.4810   -0.9890    0.0240 c         1 MOL      0.530016
     63 O10        -7.3630   -1.8500   -0.1030 o         1 MOL     -0.514684
     64 C21        -5.7260   -0.5680   -2.4660 c3        1 MOL     -0.086781
     65 C22        -4.4190   -1.2600   -2.3350 c         1 MOL      0.557163
     66 N7         -3.9210   -1.8400   -3.3920 n         1 MOL     -0.567236
     67 O11        -3.6730   -1.2380   -1.3160 o         1 MOL     -0.565226
     68 H28        -4.7330    1.4200   -0.9880 hn        1 MOL      0.253178
     69 H29        -7.3090    0.2520   -1.5290 h1        1 MOL      0.189847
     70 H30        -5.5630    0.1740   -3.2480 hc        1 MOL      0.100152
     71 H31        -6.3460   -1.3520   -2.9080 hc        1 MOL      0.100152
     72 H32        -4.4760   -1.8310   -4.2360 hn        1 MOL      0.280175
     73 H33        -3.1830   -2.5100   -3.2600 hn        1 MOL      0.280175
     74 N8         -5.8890   -0.7790    1.2270 n         1 MOL     -0.139850
     75 C23        -6.0810   -1.3840    2.5820 c3        1 MOL     -0.185086
     76 C24        -5.0480   -2.3720    3.0770 c         1 MOL      0.622645
     77 O12        -5.2300   -3.0320    4.1230 o         1 MOL     -0.577020
     78 H34        -5.2910    0.0270    1.2620 hn        1 MOL      0.229352
     79 H35        -7.0460   -1.8970    2.5570 h1        1 MOL      0.096759
     80 H36        -6.2140   -0.5930    3.3090 h1        1 MOL      0.096759
     81 N9         -3.9120   -2.3440    2.3210 n         1 MOL     -0.256544
     82 C25        -2.8070   -3.2160    2.6100 c3        1 MOL     -0.101099
     83 C26        -1.5120   -2.5370    2.0410 c         1 MOL      0.669688
     84 O13        -1.5330   -1.7180    1.0830 o         1 MOL     -0.646557
     85 C27        -3.1470   -4.6120    2.0700 c3        1 MOL     -0.184264
     86 C28        -3.8290   -4.7740    0.7020 ca        1 MOL      0.164966
     87 C29        -5.1960   -4.9650    0.6590 ca        1 MOL     -0.251693
     88 C30        -3.1410   -4.9260   -0.4770 ca        1 MOL     -0.251693
     89 C31        -5.8880   -5.2630   -0.5520 ca        1 MOL     -0.221158
     90 C32        -3.7560   -5.1850   -1.7200 ca        1 MOL     -0.221158
     91 C33        -5.1630   -5.3770   -1.7540 ca        1 MOL      0.295432
     92 O14        -5.7230   -5.8690   -2.8320 oh        1 MOL     -0.390886
     93 H37        -3.8810   -1.7310    1.5180 hn        1 MOL      0.176902
     94 H38        -2.7240   -3.3330    3.6880 h1        1 MOL      0.073575
     95 H39        -3.8630   -5.0660    2.7580 hc        1 MOL      0.083243
     96 H40        -2.2540   -5.2300    2.1230 hc        1 MOL      0.083243
     97 H41        -5.7820   -4.7970    1.5480 ha        1 MOL      0.161334
     98 H42        -2.0740   -4.7790   -0.4010 ha        1 MOL      0.161334
     99 H43        -6.9550   -5.4460   -0.4900 ha        1 MOL      0.146481
    100 H44        -3.2080   -5.3870   -2.6350 ha        1 MOL      0.146481
    101 H45        -5.0120   -5.9580   -3.4820 ho        1 MOL      0.288585
    102 N10        -0.4070   -2.8890    2.6180 n         1 MOL     -0.469390
    103 C34         0.9700   -2.4790    2.2270 c3        1 MOL     -0.093353
    104 C35         1.7140   -3.3960    1.1940 c         1 MOL      0.713830
    105 O15         1.7490   -4.5430    1.4380 o         1 MOL     -0.590991
    106 C36         1.8470   -2.3530    3.4960 c3        1 MOL      0.263246
    107 C37         1.1090   -1.4250    4.4970 c3        1 MOL     -0.031370
    108 C38         3.1980   -1.7640    3.1640 c3        1 MOL     -0.440484
    109 C39         1.6180   -1.6890    5.9540 c3        1 MOL     -0.216120
    110 H46        -0.4740   -3.5710    3.3600 hn        1 MOL      0.304373
    111 H47         0.8170   -1.5140    1.7480 h1        1 MOL      0.091525
    112 H48         2.0000   -3.3170    3.9750 hc        1 MOL     -0.006410
    113 H49         0.0460   -1.5700    4.6960 hc        1 MOL      0.038736
    114 H50         1.3700   -0.4010    4.2330 hc        1 MOL      0.038736
    115 H51         3.7880   -2.4960    2.6050 hc        1 MOL      0.099448
    116 H52         3.1050   -0.9000    2.5030 hc        1 MOL      0.099448
    117 H53         3.6520   -1.4210    4.0950 hc        1 MOL      0.099448
    118 H54         1.2610   -0.9180    6.6400 hc        1 MOL      0.055943
    119 H55         1.4070   -2.7150    6.2290 hc        1 MOL      0.055943
    120 H56         2.6890   -1.4980    6.0330 hc        1 MOL      0.055943
    121 N11         2.2750   -2.8440    0.1130 n         1 MOL     -0.412466
    122 C40         3.1300   -3.5740   -0.7910 c3        1 MOL      0.155870
    123 C41         4.6710   -3.4360   -0.5040 c         1 MOL      0.337551
    124 O16         5.1110   -2.4650    0.1590 o         1 MOL     -0.300067
    125 C42         2.8800   -3.2170   -2.2800 c3        1 MOL     -0.268409
    126 O17         3.5530   -2.0710   -2.6310 oh        1 MOL     -0.318196
    127 H57         2.1870   -1.8580   -0.0600 hn        1 MOL      0.235728
    128 H58         2.9500   -4.6410   -0.6730 h1        1 MOL      0.048410
    129 H59         1.8100   -3.0540   -2.4710 h1        1 MOL      0.108246
    130 H60         3.2650   -4.0270   -2.9030 h1        1 MOL      0.108246
    131 H61         3.3450   -1.8670   -3.5470 ho        1 MOL      0.374802
    132 N12         5.6230   -4.3200   -1.0350 n         1 MOL     -0.446490
    133 C43         7.0740   -4.0650   -0.8090 c3        1 MOL      0.139336
    134 C44         7.5980   -2.7520   -1.3930 c         1 MOL      0.364041
    135 O18         8.4900   -2.1510   -0.7410 o         1 MOL     -0.529908
    136 C45         7.8140   -5.2500   -1.3670 c3        1 MOL     -0.313439
    137 H62         5.3540   -5.1590   -1.5310 hn        1 MOL      0.299452
    138 H63         7.2490   -3.9390    0.2630 h1        1 MOL      0.098237
    139 H64         7.5330   -5.3770   -2.4070 hc        1 MOL      0.098543
    140 H65         8.9030   -5.2390   -1.3190 hc        1 MOL      0.098543
    141 H66         7.5990   -6.1440   -0.7830 hc        1 MOL      0.098543
    142 N13         7.0280   -2.2070   -2.4050 n         1 MOL     -0.170620
    143 C46         7.3420   -0.9140   -2.9790 c3        1 MOL      0.033898
    144 C47         6.9240    0.2200   -2.0390 c         1 MOL      0.330685
    145 O19         7.6670    1.1980   -1.7790 o         1 MOL     -0.530033
    146 C48         6.7670   -0.8700   -4.4050 c3        1 MOL     -0.170575
    147 H67         6.3310   -2.7740   -2.8730 hn        1 MOL      0.168728
    148 H68         8.4240   -0.7770   -3.0270 h1        1 MOL      0.103406
    149 H69         5.6720   -0.8440   -4.4050 hc        1 MOL      0.053677
    150 H70         7.1260    0.0020   -4.9460 hc        1 MOL      0.053677
    151 H71         7.1570   -1.7120   -4.9700 hc        1 MOL      0.053677
    152 N14         5.8260    0.0920   -1.3950 n         1 MOL      0.048363
    153 C49         5.3930    1.0080   -0.3440 c3        1 MOL     -0.071395
    154 C50         6.0890    0.8950    0.9990 c         1 MOL      0.425489
    155 O20         6.4190    1.9640    1.5840 o         1 MOL     -0.552911
    156 C51         3.9160    0.7990   -0.0440 c3        1 MOL      0.162883
    157 C52         2.9460    1.4260   -1.0610 c3        1 MOL     -0.345120
    158 C53         1.4030    1.1670   -0.7300 c         1 MOL      1.053338
    159 O21         1.1110    0.1110   -0.0990 o         1 MOL     -0.848139
    160 O22         0.5510    1.9340   -1.2160 o         1 MOL     -0.848139
    161 H72         5.2280   -0.7000   -1.5680 hn        1 MOL     -0.025434
    162 H73         5.4540    1.9940   -0.8000 h1        1 MOL      0.068555
    163 H74         3.6880    0.9770    1.0010 hc        1 MOL     -0.025061
    164 H75         3.8620   -0.2660   -0.2580 hc        1 MOL     -0.025061
    165 H76         3.0730    0.8190   -1.9590 hc        1 MOL      0.025398
    166 H77         3.0670    2.5010   -1.1400 hc        1 MOL      0.025398
    167 N15         6.5410   -0.3030    1.4790 n         1 MOL     -0.051408
    168 C54         7.4640   -0.4470    2.6070 c3        1 MOL     -0.272984
    169 H78         8.4750   -0.2020    2.2820 h1        1 MOL      0.103705
    170 H79         7.1680    0.2300    3.4080 h1        1 MOL      0.103705
    171 H80         7.4380   -1.4740    2.9700 h1        1 MOL      0.103705
    172 H81         6.1360   -1.1770    1.1660 hn        1 MOL      0.118560
    173 Ca1        -1.2580   -0.2280   -0.9860 Ca        1 MOL      1.752587
    174 O23        -0.3570   -0.4440   -3.4800 oh        1 MOL     -0.854281
    175 H82        -1.1310   -0.4550   -4.0430 ho        1 MOL      0.398997
    176 H83         0.3290   -0.0380   -4.0230 ho        1 MOL      0.398997
    177 O24        -0.8200   -2.8680   -1.7530 oh        1 MOL     -0.854281
    178 H84        -0.4210   -3.6950   -1.4730 ho        1 MOL      0.398997
    179 H85        -0.9490   -2.9630   -2.6930 ho        1 MOL      0.398997
@<TRIPOS>BOND
     1    1    2 1   
     2    1    4 1   
     3    1    5 1   
     4    1    6 1   
     5    2    3 2   
     6    2    7 1   
     7    7    8 1   
     8    7   15 1   
     9    8    9 1   
    10    8   11 1   
    11    8   16 1   
    12    9   10 2   
    13    9   19 1   
    14   11   12 1   
    15   11   17 1   
    16   11   18 1   
    17   12   13 1   
    18   12   14 1   
    19   19   20 1   
    20   19   28 1   
    21   20   21 1   
    22   20   23 1   
    23   20   29 1   
    24   21   22 2   
    25   21   41 1   
    26   23   24 1   
    27   23   30 1   
    28   23   31 1   
    29   24   25 1   
    30   24   32 1   
    31   24   33 1   
    32   25   26 1   
    33   25   34 1   
    34   25   35 1   
    35   26   27 1   
    36   26   36 1   
    37   26   37 1   
    38   27   38 1   
    39   27   39 1   
    40   27   40 1   
    41   41   42 1   
    42   41   49 1   
    43   42   43 1   
    44   42   45 1   
    45   42   50 1   
    46   43   44 2   
    47   43   53 1   
    48   45   46 1   
    49   45   51 1   
    50   45   52 1   
    51   46   47 1   
    52   46   48 1   
    53   53   54 1   
    54   53   57 1   
    55   54   55 1   
    56   54   58 1   
    57   54   59 1   
    58   55   56 2   
    59   55   60 1   
    60   60   61 1   
    61   60   68 1   
    62   61   62 1   
    63   61   64 1   
    64   61   69 1   
    65   62   63 2   
    66   62   74 1   
    67   64   65 1   
    68   64   70 1   
    69   64   71 1   
    70   65   66 1   
    71   65   67 2   
    72   66   72 1   
    73   66   73 1   
    74   74   75 1   
    75   74   78 1   
    76   75   76 1   
    77   75   79 1   
    78   75   80 1   
    79   76   77 2   
    80   76   81 1   
    81   81   82 1   
    82   81   93 1   
    83   82   83 1   
    84   82   85 1   
    85   82   94 1   
    86   83   84 2   
    87   83  102 1   
    88   85   86 1   
    89   85   95 1   
    90   85   96 1   
    91   86   87 ar  
    92   86   88 ar  
    93   87   89 ar  
    94   87   97 1   
    95   88   90 ar  
    96   88   98 1   
    97   89   91 ar  
    98   89   99 1   
    99   90   91 ar  
   100   90  100 1   
   101   91   92 1   
   102   92  101 1   
   103  102  103 1   
   104  102  110 1   
   105  103  104 1   
   106  103  106 1   
   107  103  111 1   
   108  104  105 2   
   109  104  121 1   
   110  106  107 1   
   111  106  108 1   
   112  106  112 1   
   113  107  109 1   
   114  107  113 1   
   115  107  114 1   
   116  108  115 1   
   117  108  116 1   
   118  108  117 1   
   119  109  118 1   
   120  109  119 1   
   121  109  120 1   
   122  121  122 1   
   123  121  127 1   
   124  122  123 1   
   125  122  125 1   
   126  122  128 1   
   127  123  124 2   
   128  123  132 1   
   129  125  126 1   
   130  125  129 1   
   131  125  130 1   
   132  126  131 1   
   133  132  133 1   
   134  132  137 1   
   135  133  134 1   
   136  133  136 1   
   137  133  138 1   
   138  134  135 2   
   139  134  142 1   
   140  136  139 1   
   141  136  140 1   
   142  136  141 1   
   143  142  143 1   
   144  142  147 1   
   145  143  144 1   
   146  143  146 1   
   147  143  148 1   
   148  144  145 2   
   149  144  152 1   
   150  146  149 1   
   151  146  150 1   
   152  146  151 1   
   153  152  153 1   
   154  152  161 1   
   155  153  154 1   
   156  153  156 1   
   157  153  162 1   
   158  154  155 2   
   159  154  167 1   
   160  156  157 1   
   161  156  163 1   
   162  156  164 1   
   163  157  158 1   
   164  157  165 1   
   165  157  166 1   
   166  158  159 1   
   167  158  160 1   
   168  167  168 1   
   169  167  172 1   
   170  168  169 1   
   171  168  170 1   
   172  168  171 1   
   173  174  175 1   
   174  174  176 1   
   175  177  178 1   
   176  177  179 1   
@<TRIPOS>SUBSTRUCTURE
     1 MOL         1 TEMP              0 ****  ****    0 ROOT
