@<TRIPOS>MOLECULE
MOL
  189   185     1     0     0
SMALL
resp


@<TRIPOS>ATOM
      1 C1          0.8210   -2.5650    6.2760 c3        1 MOL     -0.444540
      2 C2          0.8600   -2.4500    4.7220 c         1 MOL      0.709529
      3 O1          0.4760   -1.4420    4.0970 o         1 MOL     -0.596996
      4 H1          0.8230   -3.6170    6.5620 hc        1 MOL      0.112833
      5 H2          1.6960   -2.0720    6.7000 hc        1 MOL      0.112833
      6 H3         -0.0840   -2.0890    6.6540 hc        1 MOL      0.112833
      7 N1          1.4730   -3.4470    4.1250 n         1 MOL     -0.540856
      8 C3          2.0040   -3.3370    2.7900 c3        1 MOL      0.142745
      9 C4          1.6740   -4.6140    2.0410 c         1 MOL      0.449160
     10 O2          1.7660   -5.6880    2.6390 o         1 MOL     -0.576746
     11 C5          3.5300   -3.1560    2.8240 c3        1 MOL     -0.095887
     12 C6          4.1670   -3.0340    1.4320 c         1 MOL      0.608562
     13 O3          3.5530   -2.3200    0.6280 o         1 MOL     -0.645042
     14 O4          5.3370   -3.5030    1.2130 o         1 MOL     -0.645042
     15 H4          1.8270   -4.2280    4.6720 hn        1 MOL      0.310513
     16 H5          1.5630   -2.5080    2.2390 h1        1 MOL      0.078202
     17 H6          4.0270   -3.9280    3.4080 hc        1 MOL     -0.002485
     18 H7          3.7330   -2.2370    3.3780 hc        1 MOL     -0.002485
     19 N2          1.4800   -4.5330    0.6960 n         1 MOL     -0.087649
     20 C7          1.6010   -5.6690   -0.2210 c3        1 MOL     -0.064665
     21 C8          2.6070   -5.4600   -1.4160 c         1 MOL      0.411464
     22 O5          2.8320   -6.4130   -2.1610 o         1 MOL     -0.566161
     23 C9          0.1570   -6.0200   -0.7970 c3        1 MOL      0.259064
     24 C10        -0.5490   -4.7790   -1.4330 c3        1 MOL      0.036580
     25 C11        -0.7150   -6.6430    0.2670 c3        1 MOL     -0.176627
     26 C12        -1.7970   -5.1820   -2.3040 c3        1 MOL     -0.466221
     27 H8          1.2290   -3.6210    0.3620 hn        1 MOL      0.004635
     28 H9          1.9650   -6.5320    0.3360 h1        1 MOL      0.085584
     29 H10         0.3730   -6.7830   -1.5440 hc        1 MOL     -0.063832
     30 H11         0.0770   -4.3230   -2.1970 hc        1 MOL      0.054051
     31 H12        -0.8530   -4.0750   -0.6690 hc        1 MOL      0.054051
     32 H13        -1.6900   -6.9290   -0.1180 hc        1 MOL      0.017577
     33 H14        -0.1850   -7.5000    0.6720 hc        1 MOL      0.017577
     34 H15        -0.8460   -5.9320    1.0950 hc        1 MOL      0.017577
     35 H16        -2.5280   -5.7410   -1.7160 hc        1 MOL      0.115667
     36 H17        -2.2570   -4.3460   -2.8320 hc        1 MOL      0.115667
     37 H18        -1.3870   -5.8060   -3.1020 hc        1 MOL      0.115667
     38 N3          3.1630   -4.2790   -1.5690 n         1 MOL     -0.294070
     39 C13         3.7590   -3.9680   -2.8230 c3        1 MOL      0.228832
     40 C14         5.2420   -3.4320   -2.7340 c         1 MOL      0.336905
     41 O6          6.0060   -3.5210   -3.6910 o         1 MOL     -0.569042
     42 C15         2.8910   -3.1320   -3.7820 c3        1 MOL     -0.348193
     43 C16         2.4230   -1.8240   -3.1500 c         1 MOL      0.904666
     44 O7          3.0820   -1.2480   -2.2990 o         1 MOL     -0.748842
     45 O8          1.3610   -1.3290   -3.5110 o         1 MOL     -0.748842
     46 H19         2.9280   -3.5780   -0.8820 hn        1 MOL      0.221095
     47 H20         3.9040   -4.8710   -3.4150 h1        1 MOL      0.053173
     48 H21         2.0350   -3.7570   -4.0340 hc        1 MOL      0.074882
     49 H22         3.4490   -2.9540   -4.7080 hc        1 MOL      0.074882
     50 N4          5.6970   -2.9280   -1.5900 n         1 MOL     -0.138969
     51 C17         7.0420   -2.2660   -1.4860 c3        1 MOL     -0.038264
     52 C18         7.2780   -0.8370   -1.9330 c         1 MOL      0.424906
     53 O9          8.4260   -0.3400   -1.8520 o         1 MOL     -0.622858
     54 H23         5.1270   -2.9620   -0.7550 hn        1 MOL      0.087078
     55 H24         7.8200   -2.8930   -1.9290 h1        1 MOL      0.069399
     56 H25         7.3960   -2.2030   -0.4520 h1        1 MOL      0.069399
     57 N5          6.2940   -0.0800   -2.3690 n         1 MOL     -0.101510
     58 C19         6.4890    1.2590   -2.8540 c3        1 MOL     -0.019351
     59 C20         6.7720    2.2280   -1.8170 c         1 MOL      0.488568
     60 O10         7.0540    3.3620   -2.1650 o         1 MOL     -0.569698
     61 C21         5.1700    1.7450   -3.5600 c3        1 MOL     -0.374585
     62 C22         3.9090    1.6710   -2.6970 c         1 MOL      0.923620
     63 O11         3.9120    1.4360   -1.4850 o         1 MOL     -0.740659
     64 O12         2.8830    1.8950   -3.3490 o         1 MOL     -0.740659
     65 H26         5.3390   -0.3650   -2.2530 hn        1 MOL      0.098056
     66 H27         7.2770    1.3310   -3.6120 h1        1 MOL      0.096741
     67 H28         4.9720    1.1110   -4.4190 hc        1 MOL      0.098117
     68 H29         5.2290    2.7980   -3.8340 hc        1 MOL      0.098117
     69 N6          6.7710    1.7920   -0.5310 n         1 MOL     -0.204256
     70 C23         7.2090    2.5350    0.6120 c3        1 MOL     -0.268201
     71 C24         6.1040    3.4730    1.2680 c         1 MOL      0.475763
     72 O13         6.4930    4.2240    2.1670 o         1 MOL     -0.573600
     73 H30         6.4380    0.8500   -0.4350 hn        1 MOL      0.239137
     74 H31         8.0120    3.1700    0.2670 h1        1 MOL      0.120604
     75 H32         7.5870    1.8480    1.3650 h1        1 MOL      0.120604
     76 N7          4.8970    3.4280    0.7000 n         1 MOL     -0.188076
     77 C25         3.6570    4.2150    1.1170 c3        1 MOL     -0.065033
     78 C26         2.4600    3.3170    1.4390 c         1 MOL      0.770673
     79 O14         2.0750    2.4730    0.6900 o         1 MOL     -0.610329
     80 C27         3.2640    5.2660    0.0870 c3        1 MOL     -0.023042
     81 C28         4.4070    6.2510   -0.0460 c3        1 MOL     -0.186845
     82 C29         3.9610    7.4290   -0.8690 c         1 MOL      0.662206
     83 N8          4.3480    7.4460   -2.1320 n         1 MOL     -0.805079
     84 O15         3.3120    8.3440   -0.4350 o         1 MOL     -0.595609
     85 H33         4.7360    2.8090   -0.0790 hn        1 MOL      0.189285
     86 H34         3.8520    4.7200    2.0570 h1        1 MOL      0.039307
     87 H35         2.2860    5.6270    0.3980 hc        1 MOL      0.048848
     88 H36         3.2210    4.8050   -0.8960 hc        1 MOL      0.048848
     89 H37         5.2540    5.8150   -0.5760 hc        1 MOL      0.083399
     90 H38         4.7780    6.6850    0.8860 hc        1 MOL      0.083399
     91 H39         4.6750    6.6070   -2.5910 hn        1 MOL      0.359654
     92 H40         3.8730    8.1440   -2.6720 hn        1 MOL      0.359654
     93 N9          1.5740    3.7600    2.3860 n         1 MOL     -0.790646
     94 C30         0.3450    3.0180    2.7130 c3        1 MOL      0.076458
     95 C31        -0.8250    3.3980    1.7290 c         1 MOL      0.645324
     96 O16        -1.3780    4.5070    1.7920 o         1 MOL     -0.621324
     97 C32        -0.0230    2.9600    4.1890 c3        1 MOL      0.220155
     98 C33        -0.4260    4.3290    4.8440 c3        1 MOL     -0.201634
     99 C34        -0.9920    1.8100    4.3970 c3        1 MOL     -0.201634
    100 H41         1.5410    4.7350    2.6380 hn        1 MOL      0.370964
    101 H42         0.6080    1.9840    2.4850 h1        1 MOL      0.140504
    102 H43         0.8830    2.6380    4.6950 hc        1 MOL     -0.032192
    103 H44         0.4420    4.9780    4.8760 hc        1 MOL      0.032238
    104 H45        -1.1940    4.7850    4.2140 hc        1 MOL      0.032238
    105 H46        -0.7780    4.1270    5.8540 hc        1 MOL      0.032238
    106 H47        -0.4860    0.8710    4.1790 hc        1 MOL      0.032238
    107 H48        -1.1960    1.8200    5.4600 hc        1 MOL      0.032238
    108 H49        -1.9940    1.8630    3.9560 hc        1 MOL      0.032238
    109 N10        -1.3250    2.4700    0.9340 n         1 MOL     -0.358657
    110 C35        -2.5390    2.5090    0.0990 c3        1 MOL      0.259347
    111 C36        -3.8130    2.1790    0.8910 c         1 MOL      0.155539
    112 O17        -3.7870    1.4510    1.9090 o         1 MOL     -0.331502
    113 C37        -2.3520    1.6550   -1.1470 c3        1 MOL     -0.194673
    114 C38        -3.6310    1.6010   -2.0550 c         1 MOL      0.621631
    115 N11        -4.0320    2.5870   -2.7530 n         1 MOL     -0.610697
    116 O18        -4.2680    0.5300   -2.0990 o         1 MOL     -0.518343
    117 H50        -0.9380    1.5480    1.0430 hn        1 MOL      0.154061
    118 H51        -2.6790    3.5490   -0.1950 h1        1 MOL     -0.006467
    119 H52        -2.1340    0.6160   -0.9080 hc        1 MOL      0.074850
    120 H53        -1.4670    1.9840   -1.7030 hc        1 MOL      0.074850
    121 H54        -3.5490    3.4670   -2.6910 hn        1 MOL      0.302614
    122 H55        -4.9270    2.5850   -3.2130 hn        1 MOL      0.302614
    123 N12        -4.9590    2.6230    0.4230 n         1 MOL     -0.150201
    124 C39        -6.3590    2.3520    0.8960 c3        1 MOL      0.001820
    125 C40        -6.7950    0.8800    0.8890 c         1 MOL      0.508720
    126 O19        -7.6340    0.4670    1.6690 o         1 MOL     -0.625176
    127 C41        -7.4500    3.1930    0.1390 c3        1 MOL      0.041708
    128 C42        -7.8630    2.8500   -1.2600 ca        1 MOL      0.025692
    129 C43        -8.7740    1.8210   -1.6250 ca        1 MOL     -0.160780
    130 C44        -7.2370    3.5820   -2.2960 ca        1 MOL     -0.160780
    131 C45        -9.0020    1.4790   -2.9600 ca        1 MOL     -0.376617
    132 C46        -7.5230    3.2990   -3.6650 ca        1 MOL     -0.376617
    133 C47        -8.4230    2.2420   -3.9710 ca        1 MOL      0.516539
    134 O20        -8.7580    1.9920   -5.2230 oh        1 MOL     -0.567726
    135 H56        -4.9790    3.1400   -0.4440 hn        1 MOL      0.122778
    136 H57        -6.3590    2.6470    1.9410 h1        1 MOL      0.066957
    137 H58        -6.9950    4.1820    0.0340 hc        1 MOL     -0.015014
    138 H59        -8.2980    3.3150    0.8190 hc        1 MOL     -0.015014
    139 H60        -9.2500    1.2840   -0.8100 ha        1 MOL      0.145726
    140 H61        -6.5010    4.3220   -2.0350 ha        1 MOL      0.145726
    141 H62        -9.6370    0.6350   -3.1630 ha        1 MOL      0.175617
    142 H63        -7.0530    3.8230   -4.4910 ha        1 MOL      0.175617
    143 H64        -9.3890    1.2830   -5.3440 ho        1 MOL      0.431039
    144 N13        -6.2400    0.0610    0.0300 n         1 MOL     -0.022261
    145 C48        -6.4280   -1.4080    0.0170 c3        1 MOL      0.004850
    146 C49        -5.5830   -2.1740    1.0090 c         1 MOL      0.405077
    147 O21        -5.6970   -3.3900    1.0450 o         1 MOL     -0.530923
    148 C50        -6.2780   -2.0170   -1.4180 c3        1 MOL     -0.059705
    149 C51        -7.3480   -1.3220   -2.2870 c3        1 MOL     -0.403814
    150 C52        -7.3010   -1.9700   -3.6720 c         1 MOL      0.831981
    151 O22        -7.9180   -3.0490   -3.9200 o         1 MOL     -0.769026
    152 O23        -6.7410   -1.4380   -4.6100 o         1 MOL     -0.769026
    153 H65        -5.5410    0.4930   -0.5630 hn        1 MOL      0.089144
    154 H66        -7.4560   -1.5400    0.3480 h1        1 MOL      0.074781
    155 H67        -6.4760   -3.0890   -1.2910 hc        1 MOL      0.069599
    156 H68        -5.2660   -1.9060   -1.8210 hc        1 MOL      0.069599
    157 H69        -7.0130   -0.2900   -2.3600 hc        1 MOL      0.084655
    158 H70        -8.2840   -1.4530   -1.7590 hc        1 MOL      0.084655
    159 N14        -4.7330   -1.5190    1.7780 n         1 MOL     -0.348700
    160 C53        -3.7130   -2.0630    2.7920 c3        1 MOL      0.063713
    161 C54        -4.0000   -1.5900    4.1710 c         1 MOL      0.398909
    162 O24        -3.6510   -2.3410    5.0850 o         1 MOL     -0.547988
    163 C55        -2.2780   -1.6610    2.3680 c3        1 MOL     -0.005216
    164 C56        -1.9140   -1.6840    0.8290 c3        1 MOL     -0.272198
    165 C57        -0.4770   -1.2040    0.6050 c         1 MOL      0.761624
    166 O25        -0.1370   -0.0480    0.9710 o         1 MOL     -0.722426
    167 O26         0.4190   -1.9150    0.0230 o         1 MOL     -0.722426
    168 H71        -4.7900   -0.5350    1.5800 hn        1 MOL      0.127831
    169 H72        -3.8030   -3.1550    2.8130 h1        1 MOL      0.080644
    170 H73        -1.6070   -2.3550    2.8720 hc        1 MOL      0.046661
    171 H74        -2.0440   -0.6570    2.7310 hc        1 MOL      0.046661
    172 H75        -2.5890   -1.0530    0.2490 hc        1 MOL      0.124656
    173 H76        -2.0080   -2.7200    0.5170 hc        1 MOL      0.124656
    174 N15        -4.5530   -0.3770    4.3500 n         1 MOL     -0.096595
    175 C58        -4.7950    0.3880    5.5740 c3        1 MOL     -0.177973
    176 H77        -5.3560    1.2910    5.3320 h1        1 MOL      0.076492
    177 H78        -5.3690   -0.2180    6.2740 h1        1 MOL      0.076492
    178 H79        -3.8420    0.6620    6.0260 h1        1 MOL      0.076492
    179 H80        -4.8380    0.0490    3.4830 hn        1 MOL      0.122190
    180 Ca1         2.4090   -0.0670   -0.0320 Ca        1 MOL      1.711715
    181 O27         4.7650    0.6480    1.5580 oh        1 MOL     -0.873766
    182 H81         5.5190    0.0620    1.4890 ho        1 MOL      0.423429
    183 H82         4.5570    0.6650    2.4910 ho        1 MOL      0.423429
    184 O28         2.2910   -0.0450    2.7880 oh        1 MOL     -0.873766
    185 H83         2.7730   -0.1120    3.6070 ho        1 MOL      0.423429
    186 H84         1.4650   -0.4900    2.9680 ho        1 MOL      0.423429
    187 O29         0.8730    0.9020   -2.1510 oh        1 MOL     -0.873766
    188 H85         0.8480    0.0880   -2.6520 ho        1 MOL      0.423429
    189 H86         1.4300    1.4870   -2.6640 ho        1 MOL      0.423429
@<TRIPOS>BOND
     1    1    2 1   
     2    1    4 1   
     3    1    5 1   
     4    1    6 1   
     5    2    3 2   
     6    2    7 1   
     7    7    8 1   
     8    7   15 1   
     9    8    9 1   
    10    8   11 1   
    11    8   16 1   
    12    9   10 2   
    13    9   19 1   
    14   11   12 1   
    15   11   17 1   
    16   11   18 1   
    17   12   13 1   
    18   12   14 1   
    19   19   20 1   
    20   19   27 1   
    21   20   21 1   
    22   20   23 1   
    23   20   28 1   
    24   21   22 2   
    25   21   38 1   
    26   23   24 1   
    27   23   25 1   
    28   23   29 1   
    29   24   26 1   
    30   24   30 1   
    31   24   31 1   
    32   25   32 1   
    33   25   33 1   
    34   25   34 1   
    35   26   35 1   
    36   26   36 1   
    37   26   37 1   
    38   38   39 1   
    39   38   46 1   
    40   39   40 1   
    41   39   42 1   
    42   39   47 1   
    43   40   41 2   
    44   40   50 1   
    45   42   43 1   
    46   42   48 1   
    47   42   49 1   
    48   43   44 1   
    49   43   45 1   
    50   50   51 1   
    51   50   54 1   
    52   51   52 1   
    53   51   55 1   
    54   51   56 1   
    55   52   53 2   
    56   52   57 1   
    57   57   58 1   
    58   57   65 1   
    59   58   59 1   
    60   58   61 1   
    61   58   66 1   
    62   59   60 2   
    63   59   69 1   
    64   61   62 1   
    65   61   67 1   
    66   61   68 1   
    67   62   63 1   
    68   62   64 1   
    69   69   70 1   
    70   69   73 1   
    71   70   71 1   
    72   70   74 1   
    73   70   75 1   
    74   71   72 2   
    75   71   76 1   
    76   76   77 1   
    77   76   85 1   
    78   77   78 1   
    79   77   80 1   
    80   77   86 1   
    81   78   79 2   
    82   78   93 1   
    83   80   81 1   
    84   80   87 1   
    85   80   88 1   
    86   81   82 1   
    87   81   89 1   
    88   81   90 1   
    89   82   83 1   
    90   82   84 2   
    91   83   91 1   
    92   83   92 1   
    93   93   94 1   
    94   93  100 1   
    95   94   95 1   
    96   94   97 1   
    97   94  101 1   
    98   95   96 2   
    99   95  109 1   
   100   97   98 1   
   101   97   99 1   
   102   97  102 1   
   103   98  103 1   
   104   98  104 1   
   105   98  105 1   
   106   99  106 1   
   107   99  107 1   
   108   99  108 1   
   109  109  110 1   
   110  109  117 1   
   111  110  111 1   
   112  110  113 1   
   113  110  118 1   
   114  111  112 2   
   115  111  123 1   
   116  113  114 1   
   117  113  119 1   
   118  113  120 1   
   119  114  115 1   
   120  114  116 2   
   121  115  121 1   
   122  115  122 1   
   123  123  124 1   
   124  123  135 1   
   125  124  125 1   
   126  124  127 1   
   127  124  136 1   
   128  125  126 2   
   129  125  144 1   
   130  127  128 1   
   131  127  137 1   
   132  127  138 1   
   133  128  129 ar  
   134  128  130 ar  
   135  129  131 ar  
   136  129  139 1   
   137  130  132 ar  
   138  130  140 1   
   139  131  133 ar  
   140  131  141 1   
   141  132  133 ar  
   142  132  142 1   
   143  133  134 1   
   144  134  143 1   
   145  144  145 1   
   146  144  153 1   
   147  145  146 1   
   148  145  148 1   
   149  145  154 1   
   150  146  147 2   
   151  146  159 1   
   152  148  149 1   
   153  148  155 1   
   154  148  156 1   
   155  149  150 1   
   156  149  157 1   
   157  149  158 1   
   158  150  151 1   
   159  150  152 1   
   160  159  160 1   
   161  159  168 1   
   162  160  161 1   
   163  160  163 1   
   164  160  169 1   
   165  161  162 2   
   166  161  174 1   
   167  163  164 1   
   168  163  170 1   
   169  163  171 1   
   170  164  165 1   
   171  164  172 1   
   172  164  173 1   
   173  165  166 1   
   174  165  167 1   
   175  174  175 1   
   176  174  179 1   
   177  175  176 1   
   178  175  177 1   
   179  175  178 1   
   180  181  182 1   
   181  181  183 1   
   182  184  185 1   
   183  184  186 1   
   184  187  188 1   
   185  187  189 1   
@<TRIPOS>SUBSTRUCTURE
     1 MOL         1 TEMP              0 ****  ****    0 ROOT
