@<TRIPOS>MOLECULE
MOL
  172   171     1     0     0
SMALL
resp


@<TRIPOS>ATOM
      1 C1         -0.3890    3.2560    6.1390 c3        1 MOL     -0.386905
      2 C2         -0.8160    3.2610    4.6600 c         1 MOL      0.796604
      3 O1         -0.0120    3.1490    3.7330 o         1 MOL     -0.593353
      4 H1         -0.8900    2.4390    6.6580 hc        1 MOL      0.093487
      5 H2          0.6910    3.1210    6.2060 hc        1 MOL      0.093487
      6 H3         -0.6660    4.2040    6.6010 hc        1 MOL      0.093487
      7 N1         -2.1150    3.3270    4.3650 n         1 MOL     -0.690035
      8 C3         -2.6140    3.1770    2.9530 c3        1 MOL      0.377864
      9 C4         -2.7860    4.4780    2.2030 c         1 MOL      0.409032
     10 O2         -2.9570    5.5740    2.7560 o         1 MOL     -0.572654
     11 C5         -3.9800    2.4830    2.8910 c3        1 MOL     -0.305452
     12 C6         -4.3510    2.3060    1.4440 c         1 MOL      0.783381
     13 O3         -5.2900    2.9360    1.0180 o         1 MOL     -0.710623
     14 O4         -3.6280    1.7750    0.6100 o         1 MOL     -0.710623
     15 H4         -2.7800    3.3130    5.1260 hn        1 MOL      0.311316
     16 H5         -1.9020    2.5390    2.4320 h1        1 MOL     -0.011132
     17 H6         -4.7940    3.0640    3.3230 hc        1 MOL      0.038499
     18 H7         -3.9770    1.4590    3.2760 hc        1 MOL      0.038499
     19 N2         -2.4590    4.4150    0.8890 n         1 MOL     -0.170939
     20 C7         -2.4440    5.4190   -0.1830 c3        1 MOL      0.376332
     21 C8         -3.0460    4.9360   -1.4710 c         1 MOL      0.307566
     22 O5         -2.7000    5.5100   -2.5320 o         1 MOL     -0.539940
     23 C9         -1.0070    6.0030   -0.3130 c3        1 MOL     -0.272733
     24 H8         -2.0960    3.5100    0.6190 hn        1 MOL      0.093221
     25 H9         -3.1340    6.1510    0.2420 h1        1 MOL     -0.026307
     26 H10        -0.7380    6.2670    0.7090 hc        1 MOL      0.057736
     27 H11        -0.2950    5.3100   -0.7570 hc        1 MOL      0.057736
     28 H12        -1.0390    6.9660   -0.8210 hc        1 MOL      0.057736
     29 N3         -3.9130    3.8990   -1.5040 n         1 MOL     -0.134996
     30 C10        -4.6160    3.5310   -2.7950 c3        1 MOL      0.019905
     31 C11        -5.9110    2.7970   -2.5410 c         1 MOL      0.280243
     32 O6         -6.8000    2.7620   -3.4380 o         1 MOL     -0.559027
     33 C12        -3.6580    2.6810   -3.6470 c3        1 MOL     -0.027630
     34 C13        -3.0110    1.5080   -2.9470 c         1 MOL      0.625366
     35 O7         -3.7000    0.5920   -2.3850 o         1 MOL     -0.673378
     36 O8         -1.7570    1.4450   -2.8190 o         1 MOL     -0.673378
     37 H13        -4.3480    3.5860   -0.6430 hn        1 MOL      0.080698
     38 H14        -4.8530    4.4080   -3.3840 h1        1 MOL      0.067574
     39 H15        -2.8950    3.3270   -4.0840 hc        1 MOL      0.020446
     40 H16        -4.2060    2.2530   -4.4810 hc        1 MOL      0.020446
     41 N4         -6.0950    2.0510   -1.4740 n         1 MOL      0.011472
     42 C14        -7.2240    1.2830   -1.1240 c3        1 MOL     -0.165318
     43 C15        -7.3830   -0.1430   -1.5500 c         1 MOL      0.442631
     44 O9         -8.5000   -0.6170   -1.6330 o         1 MOL     -0.582365
     45 H17        -5.4060    2.2500   -0.7610 hn        1 MOL      0.203018
     46 H18        -8.1390    1.7970   -1.4350 h1        1 MOL      0.072633
     47 H19        -7.1970    1.3210   -0.0350 h1        1 MOL      0.072633
     48 N5         -6.2770   -0.7590   -1.9140 n         1 MOL     -0.035020
     49 C16        -6.1750   -2.1370   -2.3080 c3        1 MOL     -0.089032
     50 C17        -6.2240   -3.1730   -1.1250 c         1 MOL      0.524501
     51 O10        -6.2980   -4.3540   -1.3280 o         1 MOL     -0.524764
     52 C18        -4.9270   -2.2710   -3.1780 c3        1 MOL     -0.149336
     53 C19        -3.6110   -2.3170   -2.4480 c         1 MOL      0.635207
     54 N6         -2.5190   -2.4320   -3.1980 n         1 MOL     -0.673850
     55 O11        -3.4740   -2.0590   -1.2380 o         1 MOL     -0.525894
     56 H20        -5.4330   -0.2110   -1.9920 hn        1 MOL      0.076041
     57 H21        -7.0510   -2.3350   -2.9210 h1        1 MOL      0.095868
     58 H22        -4.8160   -1.4410   -3.8790 hc        1 MOL      0.056539
     59 H23        -5.0650   -3.2360   -3.6620 hc        1 MOL      0.056539
     60 H24        -2.6460   -2.6340   -4.1770 hn        1 MOL      0.326811
     61 H25        -1.6120   -2.1920   -2.8220 hn        1 MOL      0.326811
     62 N7         -6.1860   -2.7310    0.1280 n         1 MOL     -0.401660
     63 C20        -6.3050   -3.6230    1.2780 c3        1 MOL     -0.153566
     64 C21        -4.9410   -4.3230    1.7380 c         1 MOL      0.414615
     65 O12        -4.8440   -5.1560    2.6570 o         1 MOL     -0.571379
     66 H26        -5.8750   -1.7660    0.1750 hn        1 MOL      0.278597
     67 H27        -7.0330   -4.4300    1.1560 h1        1 MOL      0.115925
     68 H28        -6.6170   -3.0190    2.1360 h1        1 MOL      0.115925
     69 N8         -3.8600   -3.8440    1.1820 n         1 MOL     -0.010434
     70 C22        -2.5670   -4.4910    1.3300 c3        1 MOL     -0.311982
     71 C23        -1.4810   -3.4520    1.4790 c         1 MOL      0.623722
     72 O13        -1.6730   -2.3100    0.9410 o         1 MOL     -0.635396
     73 C24        -2.2150   -5.4460    0.1360 c3        1 MOL      0.503420
     74 C25        -3.0780   -6.7260    0.1620 c3        1 MOL     -0.395231
     75 O14        -2.4800   -4.9190   -1.1480 oh        1 MOL     -0.613050
     76 H29        -3.8510   -2.9420    0.7140 hn        1 MOL      0.110146
     77 H30        -2.5750   -5.1140    2.2120 h1        1 MOL      0.119669
     78 H31        -1.1780   -5.7500    0.2210 h1        1 MOL     -0.031517
     79 H32        -2.4160   -3.9690   -1.0640 ho        1 MOL      0.347556
     80 H33        -2.8110   -7.4020    0.9750 hc        1 MOL      0.100903
     81 H34        -4.1240   -6.4570    0.3240 hc        1 MOL      0.100903
     82 H35        -3.0810   -7.3650   -0.7160 hc        1 MOL      0.100903
     83 N9         -0.3960   -3.6840    2.2040 n         1 MOL     -0.528818
     84 C26         0.7340   -2.7490    2.2930 c3        1 MOL     -0.025583
     85 C27         1.6510   -2.9150    1.0350 c         1 MOL      0.591321
     86 O15         2.1240   -3.9920    0.7800 o         1 MOL     -0.607003
     87 C28         1.4930   -2.9280    3.6340 c3        1 MOL      0.408533
     88 C29         0.5660   -2.7500    4.8730 c3        1 MOL      0.080966
     89 C30         2.8610   -2.1520    3.5770 c3        1 MOL     -0.466670
     90 C31         1.2820   -3.1490    6.2110 c3        1 MOL     -0.051427
     91 H36        -0.3130   -4.5890    2.6400 hn        1 MOL      0.296346
     92 H37         0.2940   -1.7510    2.2200 h1        1 MOL      0.020790
     93 H38         1.7370   -3.9890    3.6290 hc        1 MOL     -0.090437
     94 H39        -0.3020   -3.4080    4.8690 hc        1 MOL     -0.035598
     95 H40         0.2120   -1.7290    4.9450 hc        1 MOL     -0.035598
     96 H41         3.3480   -2.2440    4.5500 hc        1 MOL      0.097033
     97 H42         3.5580   -2.5530    2.8430 hc        1 MOL      0.097033
     98 H43         2.5870   -1.1200    3.3580 hc        1 MOL      0.097033
     99 H44         2.1490   -2.5050    6.3790 hc        1 MOL     -0.001417
    100 H45         0.6030   -3.0280    7.0580 hc        1 MOL     -0.001417
    101 H46         1.5860   -4.1960    6.1820 hc        1 MOL     -0.001417
    102 N10         1.8650   -1.8770    0.2310 n         1 MOL     -0.169842
    103 C32         2.7120   -1.8270   -0.9580 c3        1 MOL     -0.037337
    104 C33         4.1640   -1.4030   -0.6740 c         1 MOL      0.550939
    105 O16         4.4610   -0.8760    0.3980 o         1 MOL     -0.443087
    106 C34         2.0710   -1.0240   -2.1320 c3        1 MOL     -0.131440
    107 C35         0.6230   -1.4680   -2.4910 c         1 MOL      0.643187
    108 O17         0.4650   -1.9030   -3.6660 o         1 MOL     -0.645322
    109 O18        -0.3300   -1.2200   -1.7150 o         1 MOL     -0.645322
    110 H47         1.2110   -1.1440    0.4480 hn        1 MOL      0.166351
    111 H48         2.7540   -2.8440   -1.3560 h1        1 MOL      0.056011
    112 H49         2.6980   -1.0930   -3.0180 hc        1 MOL      0.035690
    113 H50         2.0950    0.0200   -1.8180 hc        1 MOL      0.035690
    114 N11         5.0890   -1.6370   -1.6680 n         1 MOL     -0.689261
    115 C36         6.4740   -1.3240   -1.4350 c3        1 MOL      0.410444
    116 C37         6.7560    0.1890   -1.1720 c         1 MOL      0.247485
    117 O19         7.5470    0.5520   -0.2840 o         1 MOL     -0.452947
    118 C38         7.3650   -1.8390   -2.5190 c3        1 MOL     -0.176400
    119 C39         8.8640   -1.7100   -2.1590 ca        1 MOL      0.088636
    120 C40         9.6850   -0.8950   -3.0400 ca        1 MOL     -0.223855
    121 C41         9.4690   -2.4020   -1.0430 ca        1 MOL     -0.223855
    122 C42        11.0520   -0.9480   -2.8330 ca        1 MOL     -0.025121
    123 C43        10.9070   -2.2700   -0.8080 ca        1 MOL     -0.025121
    124 C44        11.7050   -1.5540   -1.7360 ca        1 MOL     -0.181935
    125 H51         4.7600   -1.8890   -2.5830 hn        1 MOL      0.349660
    126 H52         6.8060   -1.9230   -0.5860 h1        1 MOL      0.042802
    127 H53         7.1250   -1.2920   -3.4330 hc        1 MOL      0.058127
    128 H54         7.1420   -2.8880   -2.7200 hc        1 MOL      0.058127
    129 H55         9.2000   -0.4000   -3.8720 ha        1 MOL      0.135994
    130 H56         8.7880   -3.0550   -0.5060 ha        1 MOL      0.135994
    131 H57        11.6990   -0.5820   -3.6050 ha        1 MOL      0.083149
    132 H58        11.3820   -2.8940   -0.0660 ha        1 MOL      0.083149
    133 H59        12.7830   -1.5340   -1.6930 ha        1 MOL      0.118855
    134 N12         6.0780    1.1160   -1.9030 n         1 MOL     -0.002337
    135 C45         6.2030    2.5550   -1.6020 c3        1 MOL      0.008929
    136 C46         5.6790    2.8930   -0.2120 c         1 MOL      0.317495
    137 O20         6.2530    3.7270    0.5030 o         1 MOL     -0.512221
    138 C47         5.6410    3.3140   -2.8210 c3        1 MOL     -0.186019
    139 C48         4.6410    2.2940   -3.3780 c3        1 MOL      0.037957
    140 C49         5.2500    0.9120   -3.0700 c3        1 MOL     -0.154557
    141 H60         7.2650    2.7780   -1.5450 h1        1 MOL      0.073339
    142 H61         5.1640    4.2880   -2.6680 hc        1 MOL      0.077930
    143 H62         6.5210    3.3700   -3.4530 hc        1 MOL      0.077930
    144 H63         3.6780    2.4060   -2.8810 hc        1 MOL      0.035711
    145 H64         4.5100    2.3990   -4.4600 hc        1 MOL      0.035711
    146 H65         4.4520    0.2220   -2.8100 h1        1 MOL      0.053872
    147 H66         5.7600    0.3680   -3.8640 h1        1 MOL      0.053872
    148 N13         4.7710    2.0690    0.3170 n         1 MOL      0.082236
    149 C50         4.1380    2.2560    1.6290 c3        1 MOL     -0.324261
    150 C51         5.0100    1.7410    2.7500 c         1 MOL      0.553909
    151 O21         5.1090    2.3590    3.8200 o         1 MOL     -0.566034
    152 C52         2.7260    1.6740    1.7410 c3        1 MOL     -0.012353
    153 C53         1.8000    2.3440    0.7470 c3        1 MOL      0.259732
    154 C54         0.3950    1.6990    0.6840 c         1 MOL      0.440632
    155 O22        -0.4910    2.3740    0.1830 o         1 MOL     -0.646188
    156 O23         0.1500    0.4590    0.9370 o         1 MOL     -0.646188
    157 H67         4.6470    1.1370   -0.0560 hn        1 MOL      0.037382
    158 H68         4.1550    3.3350    1.7380 h1        1 MOL      0.141756
    159 H69         2.2420    1.9420    2.6840 hc        1 MOL      0.017291
    160 H70         2.6600    0.5980    1.5600 hc        1 MOL      0.017291
    161 H71         2.2510    2.4590   -0.2380 hc        1 MOL     -0.017993
    162 H72         1.8280    3.4130    0.9610 hc        1 MOL     -0.017993
    163 N14         5.7100    0.5950    2.5320 n         1 MOL     -0.163612
    164 C55         6.8530    0.1770    3.2750 c3        1 MOL     -0.142007
    165 H73         7.7520    0.3430    2.6820 h1        1 MOL      0.059151
    166 H74         6.9170    0.7510    4.2000 h1        1 MOL      0.059151
    167 H75         6.7660   -0.8830    3.5110 h1        1 MOL      0.059151
    168 H76         5.6500    0.1180    1.6420 hn        1 MOL      0.152734
    169 Ca1        -2.0870    0.0280   -0.3370 Ca        1 MOL      1.707898
    170 O24        -4.0620   -0.8630    1.3840 oh        1 MOL     -0.966997
    171 H77        -3.4570   -1.0480    2.1010 ho        1 MOL      0.459918
    172 H78        -4.8910   -0.6400    1.8100 ho        1 MOL      0.459918
@<TRIPOS>BOND
     1    1    2 1   
     2    1    4 1   
     3    1    5 1   
     4    1    6 1   
     5    2    3 2   
     6    2    7 1   
     7    7    8 1   
     8    7   15 1   
     9    8    9 1   
    10    8   11 1   
    11    8   16 1   
    12    9   10 2   
    13    9   19 1   
    14   11   12 1   
    15   11   17 1   
    16   11   18 1   
    17   12   13 1   
    18   12   14 1   
    19   19   20 1   
    20   19   24 1   
    21   20   21 1   
    22   20   23 1   
    23   20   25 1   
    24   21   22 2   
    25   21   29 1   
    26   23   26 1   
    27   23   27 1   
    28   23   28 1   
    29   29   30 1   
    30   29   37 1   
    31   30   31 1   
    32   30   33 1   
    33   30   38 1   
    34   31   32 2   
    35   31   41 1   
    36   33   34 1   
    37   33   39 1   
    38   33   40 1   
    39   34   35 1   
    40   34   36 1   
    41   41   42 1   
    42   41   45 1   
    43   42   43 1   
    44   42   46 1   
    45   42   47 1   
    46   43   44 2   
    47   43   48 1   
    48   48   49 1   
    49   48   56 1   
    50   49   50 1   
    51   49   52 1   
    52   49   57 1   
    53   50   51 2   
    54   50   62 1   
    55   52   53 1   
    56   52   58 1   
    57   52   59 1   
    58   53   54 1   
    59   53   55 2   
    60   54   60 1   
    61   54   61 1   
    62   62   63 1   
    63   62   66 1   
    64   63   64 1   
    65   63   67 1   
    66   63   68 1   
    67   64   65 2   
    68   64   69 1   
    69   69   70 1   
    70   69   76 1   
    71   70   71 1   
    72   70   73 1   
    73   70   77 1   
    74   71   72 2   
    75   71   83 1   
    76   73   74 1   
    77   73   75 1   
    78   73   78 1   
    79   74   80 1   
    80   74   81 1   
    81   74   82 1   
    82   75   79 1   
    83   83   84 1   
    84   83   91 1   
    85   84   85 1   
    86   84   87 1   
    87   84   92 1   
    88   85   86 2   
    89   85  102 1   
    90   87   88 1   
    91   87   89 1   
    92   87   93 1   
    93   88   90 1   
    94   88   94 1   
    95   88   95 1   
    96   89   96 1   
    97   89   97 1   
    98   89   98 1   
    99   90   99 1   
   100   90  100 1   
   101   90  101 1   
   102  102  103 1   
   103  102  110 1   
   104  103  104 1   
   105  103  106 1   
   106  103  111 1   
   107  104  105 2   
   108  104  114 1   
   109  106  107 1   
   110  106  112 1   
   111  106  113 1   
   112  107  108 1   
   113  107  109 1   
   114  114  115 1   
   115  114  125 1   
   116  115  116 1   
   117  115  118 1   
   118  115  126 1   
   119  116  117 2   
   120  116  134 1   
   121  118  119 1   
   122  118  127 1   
   123  118  128 1   
   124  119  120 ar  
   125  119  121 ar  
   126  120  122 ar  
   127  120  129 1   
   128  121  123 ar  
   129  121  130 1   
   130  122  124 ar  
   131  122  131 1   
   132  123  124 ar  
   133  123  132 1   
   134  124  133 1   
   135  134  135 1   
   136  134  140 1   
   137  135  136 1   
   138  135  138 1   
   139  135  141 1   
   140  136  137 2   
   141  136  148 1   
   142  138  139 1   
   143  138  142 1   
   144  138  143 1   
   145  139  140 1   
   146  139  144 1   
   147  139  145 1   
   148  140  146 1   
   149  140  147 1   
   150  148  149 1   
   151  148  157 1   
   152  149  150 1   
   153  149  152 1   
   154  149  158 1   
   155  150  151 2   
   156  150  163 1   
   157  152  153 1   
   158  152  159 1   
   159  152  160 1   
   160  153  154 1   
   161  153  161 1   
   162  153  162 1   
   163  154  155 1   
   164  154  156 1   
   165  163  164 1   
   166  163  168 1   
   167  164  165 1   
   168  164  166 1   
   169  164  167 1   
   170  170  171 1   
   171  170  172 1   
@<TRIPOS>SUBSTRUCTURE
     1 MOL         1 TEMP              0 ****  ****    0 ROOT
