@<TRIPOS>MOLECULE
MOL
  186   183     1     0     0
SMALL
resp


@<TRIPOS>ATOM
      1 C1         -1.1610   -3.2810   -6.2430 c3        1 MOL     -0.345326
      2 C2         -1.2470   -2.8200   -4.7660 c         1 MOL      0.774068
      3 O1         -0.3890   -3.2140   -3.9530 o         1 MOL     -0.604910
      4 H1         -0.6900   -4.2630   -6.2910 hc        1 MOL      0.079810
      5 H2         -2.1650   -3.3390   -6.6650 hc        1 MOL      0.079810
      6 H3         -0.5680   -2.5660   -6.8140 hc        1 MOL      0.079810
      7 N1         -2.3330   -2.1670   -4.3430 n         1 MOL     -0.719602
      8 C3         -2.6480   -1.8980   -2.9470 c3        1 MOL      0.403183
      9 C4         -2.9670   -3.1530   -2.1940 c         1 MOL      0.393748
     10 O2         -4.0780   -3.6880   -2.3430 o         1 MOL     -0.535904
     11 C5         -3.8720   -0.9870   -2.9660 c3        1 MOL     -0.153784
     12 C6         -4.4380   -0.7010   -1.5540 c         1 MOL      0.637369
     13 O3         -5.6820   -0.3800   -1.5100 o         1 MOL     -0.667445
     14 O4         -3.7100   -0.7310   -0.5270 o         1 MOL     -0.667445
     15 H4         -3.0570   -1.9200   -5.0030 hn        1 MOL      0.328810
     16 H5         -1.8540   -1.4160   -2.3610 h1        1 MOL     -0.067097
     17 H6         -4.6200   -1.5540   -3.5320 hc        1 MOL      0.012663
     18 H7         -3.6760   -0.0470   -3.4720 hc        1 MOL      0.012663
     19 N2         -2.1170   -3.5240   -1.2440 n         1 MOL     -0.174302
     20 C7         -2.2550   -4.7700   -0.4530 c3        1 MOL      0.022668
     21 C8         -3.4150   -4.7850    0.4750 c         1 MOL      0.194655
     22 O5         -4.1600   -5.7800    0.4890 o         1 MOL     -0.525883
     23 C9         -0.9500   -5.1770    0.1890 c3        1 MOL      0.189551
     24 C10         0.2860   -5.4170   -0.7710 c3        1 MOL      0.024788
     25 C11        -1.1020   -6.4710    1.1110 c3        1 MOL     -0.279380
     26 C12         0.0620   -6.5150   -1.8680 c3        1 MOL     -0.178299
     27 H8         -1.2340   -3.0440   -1.1220 hn        1 MOL      0.191856
     28 H9         -2.4370   -5.6030   -1.1310 h1        1 MOL      0.066821
     29 H10        -0.6740   -4.3970    0.9020 hc        1 MOL     -0.013080
     30 H11         1.1380   -5.8220   -0.2350 hc        1 MOL      0.022180
     31 H12         0.6130   -4.4620   -1.1940 hc        1 MOL      0.022180
     32 H13        -0.0750   -6.7970    1.2080 hc        1 MOL      0.060178
     33 H14        -1.5100   -6.2940    2.1110 hc        1 MOL      0.060178
     34 H15        -1.7150   -7.2200    0.6100 hc        1 MOL      0.060178
     35 H16        -0.4200   -7.3880   -1.4390 hc        1 MOL      0.033406
     36 H17        -0.6450   -6.0910   -2.5840 hc        1 MOL      0.033406
     37 H18         1.0040   -6.8260   -2.3210 hc        1 MOL      0.033406
     38 N3         -3.6320   -3.7800    1.3360 n         1 MOL     -0.033613
     39 C13        -4.5820   -3.8430    2.4810 c3        1 MOL     -0.033584
     40 C14        -5.9100   -3.1620    2.0900 c         1 MOL      0.463380
     41 O6         -6.8610   -3.2170    2.8230 o         1 MOL     -0.550520
     42 C15        -4.0210   -3.2000    3.8120 c3        1 MOL     -0.168965
     43 C16        -3.3870   -1.8000    3.6520 c         1 MOL      0.729683
     44 O7         -2.4950   -1.5020    4.4610 o         1 MOL     -0.689028
     45 O8         -3.7270   -1.1160    2.6640 o         1 MOL     -0.689028
     46 H19        -2.9360   -3.0600    1.4200 hn        1 MOL      0.199696
     47 H20        -4.8490   -4.8870    2.6680 h1        1 MOL      0.081803
     48 H21        -3.1890   -3.8650    4.0560 hc        1 MOL      0.040409
     49 H22        -4.7400   -3.2480    4.6250 hc        1 MOL      0.040409
     50 N4         -6.0550   -2.6530    0.8250 n         1 MOL     -0.236787
     51 C17        -7.3470   -2.2980    0.2130 c3        1 MOL     -0.351711
     52 C18        -7.8450   -0.8730    0.5430 c         1 MOL      0.648239
     53 O9         -9.0330   -0.5490    0.3660 o         1 MOL     -0.634416
     54 H23        -5.2400   -2.4450    0.2720 hn        1 MOL      0.284970
     55 H24        -8.1690   -2.9100    0.5820 h1        1 MOL      0.139505
     56 H25        -7.1690   -2.4910   -0.8460 h1        1 MOL      0.139505
     57 N5         -6.9440   -0.0390    1.1000 n         1 MOL     -0.324183
     58 C19        -7.3260    1.3290    1.5220 c3        1 MOL      0.066311
     59 C20        -7.4240    2.3780    0.3660 c         1 MOL      0.336182
     60 O10        -7.9330    3.4660    0.5610 o         1 MOL     -0.555418
     61 C21        -6.4230    1.8710    2.6350 c3        1 MOL     -0.136256
     62 C22        -4.9250    1.9890    2.3240 c         1 MOL      0.780221
     63 O11        -4.4780    1.9470    1.1990 o         1 MOL     -0.765673
     64 O12        -4.1170    2.2430    3.2450 o         1 MOL     -0.765673
     65 H26        -5.9740   -0.3090    1.0830 hn        1 MOL      0.182362
     66 H27        -8.3020    1.2580    2.0060 h1        1 MOL      0.072945
     67 H28        -6.4840    1.1020    3.4080 hc        1 MOL      0.028313
     68 H29        -6.9310    2.7320    3.0730 hc        1 MOL      0.028313
     69 N6         -6.9080    2.0330   -0.8160 n         1 MOL     -0.040912
     70 C23        -6.8050    2.9060   -2.0000 c3        1 MOL     -0.205779
     71 C24        -5.5180    3.6990   -2.1400 c         1 MOL      0.639339
     72 O13        -5.6110    4.6830   -2.8750 o         1 MOL     -0.604064
     73 H30        -6.7460    1.0450   -0.9490 hn        1 MOL      0.172433
     74 H31        -7.6620    3.5880   -1.9710 h1        1 MOL      0.078946
     75 H32        -6.8820    2.2530   -2.8640 h1        1 MOL      0.078946
     76 N7         -4.3860    3.3560   -1.4650 n         1 MOL     -0.377854
     77 C25        -3.0540    3.9610   -1.5370 c3        1 MOL     -0.176820
     78 C26        -1.9810    2.8650   -1.6290 c         1 MOL      0.608059
     79 O14        -1.9870    1.8850   -0.8620 o         1 MOL     -0.612042
     80 C27        -2.8360    4.9930   -0.4240 c3        1 MOL      0.180574
     81 C28        -3.5150    6.3840   -0.6450 c3        1 MOL     -0.516273
     82 C29        -2.8290    7.4000    0.2750 c         1 MOL      0.723813
     83 N8         -2.9220    7.1590    1.5560 n         1 MOL     -0.833675
     84 O15        -2.1570    8.3050   -0.1350 o         1 MOL     -0.576295
     85 H33        -4.4480    2.5510   -0.8580 hn        1 MOL      0.292462
     86 H34        -2.9810    4.4640   -2.5040 h1        1 MOL      0.079005
     87 H35        -1.7890    5.1720   -0.1630 hc        1 MOL      0.030802
     88 H36        -3.1950    4.5460    0.4990 hc        1 MOL      0.030802
     89 H37        -4.5400    6.2450   -0.3000 hc        1 MOL      0.168976
     90 H38        -3.2430    6.5860   -1.6800 hc        1 MOL      0.168976
     91 H39        -3.6130    6.4970    1.8530 hn        1 MOL      0.365781
     92 H40        -2.6860    7.9060    2.2030 hn        1 MOL      0.365781
     93 N9         -0.8850    3.1320   -2.4060 n         1 MOL     -0.438887
     94 C30         0.2470    2.2860   -2.3000 c3        1 MOL     -0.047281
     95 C31         1.3690    2.9010   -1.4500 c         1 MOL      0.444201
     96 O16         1.8710    3.9550   -1.8200 o         1 MOL     -0.567835
     97 C32         0.7260    2.0850   -3.7740 c3        1 MOL      0.289864
     98 C33         2.1080    1.3090   -3.8900 c3        1 MOL     -0.288754
     99 C34        -0.2590    1.2370   -4.5560 c3        1 MOL     -0.288754
    100 H41        -0.7940    4.0060   -2.8860 hn        1 MOL      0.275823
    101 H42        -0.0600    1.3030   -1.9580 h1        1 MOL      0.195667
    102 H43         0.8610    3.0180   -4.3290 hc        1 MOL     -0.025992
    103 H44         2.0650    0.3090   -3.4710 hc        1 MOL      0.055692
    104 H45         2.4860    1.2820   -4.9120 hc        1 MOL      0.055692
    105 H46         2.8520    1.9160   -3.3690 hc        1 MOL      0.055692
    106 H47        -1.1000    1.8800   -4.7950 hc        1 MOL      0.055692
    107 H48         0.1940    0.8720   -5.4750 hc        1 MOL      0.055692
    108 H49        -0.6180    0.3610   -4.0040 hc        1 MOL      0.055692
    109 N10         1.7600    2.2340   -0.3830 n         1 MOL     -0.231737
    110 C35         2.9180    2.4790    0.5050 c3        1 MOL      0.049606
    111 C36         4.1490    1.8490   -0.0770 c         1 MOL      0.556162
    112 O17         4.0740    0.9070   -0.8170 o         1 MOL     -0.427515
    113 C37         2.6840    1.8460    1.9270 c3        1 MOL     -0.488366
    114 C38         3.7000    2.1980    3.0350 c         1 MOL      0.665202
    115 N11         4.0120    3.4570    3.2560 n         1 MOL     -0.781301
    116 O18         4.1850    1.3590    3.7780 o         1 MOL     -0.392132
    117 H50         1.2600    1.3930   -0.1650 hn        1 MOL      0.210149
    118 H51         3.0680    3.5540    0.5230 h1        1 MOL      0.041878
    119 H52         2.4950    0.7700    1.8960 hc        1 MOL      0.169817
    120 H53         1.7250    2.2230    2.2730 hc        1 MOL      0.169817
    121 H54         3.5320    4.1390    2.6830 hn        1 MOL      0.349591
    122 H55         4.6090    3.8000    3.9920 hn        1 MOL      0.349591
    123 N12         5.3620    2.3960    0.1690 n         1 MOL     -0.523184
    124 C39         6.6350    1.8030   -0.2330 c3        1 MOL      0.187912
    125 C40         6.8430    0.2970    0.0560 c         1 MOL      0.511688
    126 O19         7.3520   -0.5500   -0.6940 o         1 MOL     -0.497207
    127 C41         7.8430    2.6390    0.2010 c3        1 MOL     -0.130650
    128 C42         9.1770    2.1430   -0.2940 ca        1 MOL     -0.082744
    129 C43         9.5990    2.2710   -1.5880 ca        1 MOL     -0.060095
    130 C44         9.9020    1.3490    0.5240 ca        1 MOL     -0.060095
    131 C45        10.7180    1.5410   -2.0900 ca        1 MOL     -0.361256
    132 C46        11.0700    0.6700    0.1250 ca        1 MOL     -0.361256
    133 C47        11.3950    0.7310   -1.2080 ca        1 MOL      0.476065
    134 O20        12.5400    0.0840   -1.6600 oh        1 MOL     -0.554748
    135 H56         5.3320    3.2090    0.7660 hn        1 MOL      0.235803
    136 H57         6.6290    1.8000   -1.3270 h1        1 MOL      0.041949
    137 H58         7.8660    2.6790    1.2900 hc        1 MOL      0.064629
    138 H59         7.6460    3.6640   -0.1160 hc        1 MOL      0.064629
    139 H60         9.0010    2.8620   -2.2710 ha        1 MOL      0.111428
    140 H61         9.4850    1.1780    1.5020 ha        1 MOL      0.111428
    141 H62        11.0850    1.5340   -3.1030 ha        1 MOL      0.172569
    142 H63        11.5710    0.0210    0.8270 ha        1 MOL      0.172569
    143 H64        13.0050   -0.3020   -0.9060 ho        1 MOL      0.363220
    144 N13         6.2630   -0.0820    1.1760 n         1 MOL     -0.151434
    145 C48         6.2360   -1.4900    1.5440 c3        1 MOL     -0.287368
    146 C49         5.3550   -2.3090    0.5980 c         1 MOL      0.390823
    147 O21         5.7410   -3.4000    0.2710 o         1 MOL     -0.515931
    148 C50         5.6680   -1.6330    2.9760 c3        1 MOL      0.252688
    149 C51         6.4930   -0.9550    4.1180 c3        1 MOL     -0.331039
    150 C52         5.9060   -1.0990    5.5510 c         1 MOL      0.671698
    151 O22         6.3210   -2.1150    6.2310 o         1 MOL     -0.717218
    152 O23         4.9160   -0.4110    5.8960 o         1 MOL     -0.717218
    153 H65         5.9750    0.5910    1.8680 hn        1 MOL      0.135317
    154 H66         7.2280   -1.9420    1.5110 h1        1 MOL      0.135861
    155 H67         5.4010   -2.6790    3.1130 hc        1 MOL      0.013189
    156 H68         4.6960   -1.1430    3.0840 hc        1 MOL      0.013189
    157 H69         6.4560    0.0860    3.8190 hc        1 MOL      0.020886
    158 H70         7.5370   -1.2670    4.1380 hc        1 MOL      0.020886
    159 N14         4.2670   -1.8180    0.0480 n         1 MOL     -0.170459
    160 C53         3.4620   -2.5910   -0.9610 c3        1 MOL     -0.071644
    161 C54         4.0940   -2.5230   -2.3940 c         1 MOL      0.453697
    162 O24         3.8710   -3.3930   -3.2510 o         1 MOL     -0.570411
    163 C55         2.0580   -1.9510   -0.8630 c3        1 MOL      0.004128
    164 C56         1.4330   -1.9720    0.5960 c3        1 MOL      0.167195
    165 C57         0.0620   -1.2280    0.6730 c         1 MOL      0.597635
    166 O25        -0.9820   -1.8150    1.0790 o         1 MOL     -0.746473
    167 O26        -0.0370   -0.0780    0.1510 o         1 MOL     -0.746473
    168 H71         3.9130   -0.9130    0.3360 hn        1 MOL      0.137935
    169 H72         3.4180   -3.6540   -0.7250 h1        1 MOL      0.085107
    170 H73         1.4180   -2.5160   -1.5320 hc        1 MOL      0.022509
    171 H74         2.1110   -0.8980   -1.1420 hc        1 MOL      0.022509
    172 H75         2.0890   -1.4810    1.3140 hc        1 MOL     -0.060398
    173 H76         1.4100   -3.0070    0.9390 hc        1 MOL     -0.060398
    174 N15         4.9580   -1.5790   -2.6220 n         1 MOL      0.032196
    175 C58         5.6220   -1.3110   -3.8680 c3        1 MOL     -0.280970
    176 H77         6.5790   -1.8340   -3.8900 h1        1 MOL      0.094572
    177 H78         5.0010   -1.6590   -4.6940 h1        1 MOL      0.094572
    178 H79         5.7920   -0.2390   -3.9670 h1        1 MOL      0.094572
    179 H80         5.1540   -0.9430   -1.8690 hn        1 MOL      0.040955
    180 Ca1        -2.3060    0.5060    1.2210 Ca        1 MOL      1.758939
    181 O27        -0.9710    0.3810    3.4290 oh        1 MOL     -0.866809
    182 H81        -1.5940   -0.1900    3.8880 ho        1 MOL      0.410269
    183 H82        -0.1130    0.1150    3.7700 ho        1 MOL      0.410269
    184 O28        -1.5380    2.9030    1.8610 oh        1 MOL     -0.866809
    185 H83        -1.5760    3.7990    1.5150 ho        1 MOL      0.410269
    186 H84        -1.7630    2.9980    2.7920 ho        1 MOL      0.410269
@<TRIPOS>BOND
     1    1    2 1   
     2    1    4 1   
     3    1    5 1   
     4    1    6 1   
     5    2    3 2   
     6    2    7 1   
     7    7    8 1   
     8    7   15 1   
     9    8    9 1   
    10    8   11 1   
    11    8   16 1   
    12    9   10 2   
    13    9   19 1   
    14   11   12 1   
    15   11   17 1   
    16   11   18 1   
    17   12   13 1   
    18   12   14 1   
    19   19   20 1   
    20   19   27 1   
    21   20   21 1   
    22   20   23 1   
    23   20   28 1   
    24   21   22 2   
    25   21   38 1   
    26   23   24 1   
    27   23   25 1   
    28   23   29 1   
    29   24   26 1   
    30   24   30 1   
    31   24   31 1   
    32   25   32 1   
    33   25   33 1   
    34   25   34 1   
    35   26   35 1   
    36   26   36 1   
    37   26   37 1   
    38   38   39 1   
    39   38   46 1   
    40   39   40 1   
    41   39   42 1   
    42   39   47 1   
    43   40   41 2   
    44   40   50 1   
    45   42   43 1   
    46   42   48 1   
    47   42   49 1   
    48   43   44 1   
    49   43   45 1   
    50   50   51 1   
    51   50   54 1   
    52   51   52 1   
    53   51   55 1   
    54   51   56 1   
    55   52   53 2   
    56   52   57 1   
    57   57   58 1   
    58   57   65 1   
    59   58   59 1   
    60   58   61 1   
    61   58   66 1   
    62   59   60 2   
    63   59   69 1   
    64   61   62 1   
    65   61   67 1   
    66   61   68 1   
    67   62   63 1   
    68   62   64 1   
    69   69   70 1   
    70   69   73 1   
    71   70   71 1   
    72   70   74 1   
    73   70   75 1   
    74   71   72 2   
    75   71   76 1   
    76   76   77 1   
    77   76   85 1   
    78   77   78 1   
    79   77   80 1   
    80   77   86 1   
    81   78   79 2   
    82   78   93 1   
    83   80   81 1   
    84   80   87 1   
    85   80   88 1   
    86   81   82 1   
    87   81   89 1   
    88   81   90 1   
    89   82   83 1   
    90   82   84 2   
    91   83   91 1   
    92   83   92 1   
    93   93   94 1   
    94   93  100 1   
    95   94   95 1   
    96   94   97 1   
    97   94  101 1   
    98   95   96 2   
    99   95  109 1   
   100   97   98 1   
   101   97   99 1   
   102   97  102 1   
   103   98  103 1   
   104   98  104 1   
   105   98  105 1   
   106   99  106 1   
   107   99  107 1   
   108   99  108 1   
   109  109  110 1   
   110  109  117 1   
   111  110  111 1   
   112  110  113 1   
   113  110  118 1   
   114  111  112 2   
   115  111  123 1   
   116  113  114 1   
   117  113  119 1   
   118  113  120 1   
   119  114  115 1   
   120  114  116 2   
   121  115  121 1   
   122  115  122 1   
   123  123  124 1   
   124  123  135 1   
   125  124  125 1   
   126  124  127 1   
   127  124  136 1   
   128  125  126 2   
   129  125  144 1   
   130  127  128 1   
   131  127  137 1   
   132  127  138 1   
   133  128  129 ar  
   134  128  130 ar  
   135  129  131 ar  
   136  129  139 1   
   137  130  132 ar  
   138  130  140 1   
   139  131  133 ar  
   140  131  141 1   
   141  132  133 ar  
   142  132  142 1   
   143  133  134 1   
   144  134  143 1   
   145  144  145 1   
   146  144  153 1   
   147  145  146 1   
   148  145  148 1   
   149  145  154 1   
   150  146  147 2   
   151  146  159 1   
   152  148  149 1   
   153  148  155 1   
   154  148  156 1   
   155  149  150 1   
   156  149  157 1   
   157  149  158 1   
   158  150  151 1   
   159  150  152 1   
   160  159  160 1   
   161  159  168 1   
   162  160  161 1   
   163  160  163 1   
   164  160  169 1   
   165  161  162 2   
   166  161  174 1   
   167  163  164 1   
   168  163  170 1   
   169  163  171 1   
   170  164  165 1   
   171  164  172 1   
   172  164  173 1   
   173  165  166 1   
   174  165  167 1   
   175  174  175 1   
   176  174  179 1   
   177  175  176 1   
   178  175  177 1   
   179  175  178 1   
   180  181  182 1   
   181  181  183 1   
   182  184  185 1   
   183  184  186 1   
@<TRIPOS>SUBSTRUCTURE
     1 MOL         1 TEMP              0 ****  ****    0 ROOT
