@<TRIPOS>MOLECULE
MOL
  182   178     1     0     0
SMALL
resp


@<TRIPOS>ATOM
      1 C1          1.4640    2.1160    6.4800 c3        1 MOL     -0.358016
      2 C2          1.3720    1.7820    4.9900 c         1 MOL      0.772804
      3 O1          2.3270    1.4310    4.2760 o         1 MOL     -0.597788
      4 H1          1.6020    1.1970    7.0500 hc        1 MOL      0.092940
      5 H2          2.3120    2.7800    6.6530 hc        1 MOL      0.092940
      6 H3          0.5450    2.6070    6.8010 hc        1 MOL      0.092940
      7 N1          0.1260    1.8760    4.4400 n         1 MOL     -0.596836
      8 C3         -0.1970    1.9000    3.0480 c3        1 MOL     -0.147634
      9 C4          0.0270    3.3130    2.4920 c         1 MOL      0.743247
     10 O2         -0.2990    4.2970    3.1570 o         1 MOL     -0.564609
     11 C5         -1.7280    1.5080    3.0750 c3        1 MOL      0.168392
     12 C6         -2.3300    1.1500    1.6870 c         1 MOL      0.145734
     13 O3         -3.3700    0.5340    1.6730 o         1 MOL     -0.413220
     14 O4         -1.8890    1.7470    0.6490 o         1 MOL     -0.413220
     15 H4         -0.6260    1.9040    5.1110 hn        1 MOL      0.314808
     16 H5          0.3700    1.1470    2.4870 h1        1 MOL      0.110915
     17 H6         -2.1450    2.4600    3.4250 hc        1 MOL     -0.011111
     18 H7         -1.9220    0.7020    3.7840 hc        1 MOL     -0.011111
     19 N2          0.5680    3.4630    1.2960 n         1 MOL     -0.447944
     20 C7          0.7000    4.8190    0.6330 c3        1 MOL     -0.011454
     21 C8         -0.6320    5.5520    0.2100 c         1 MOL      0.392631
     22 O5         -0.7870    6.7570    0.4730 o         1 MOL     -0.541014
     23 C9          1.6810    4.6580   -0.5580 c3        1 MOL     -0.197424
     24 C10         2.2900    5.9520   -0.9520 c3        1 MOL      0.120174
     25 C11         3.3040    5.8380   -2.1310 c3        1 MOL      0.028533
     26 C12         3.8800    7.1820   -2.3450 c3        1 MOL      0.057745
     27 N3          4.8010    7.2490   -3.4420 n4        1 MOL     -0.244270
     28 H8          0.6990    2.6280    0.7490 hn        1 MOL      0.139663
     29 H9          1.1630    5.5310    1.3140 h1        1 MOL      0.100499
     30 H10         1.0550    4.2570   -1.3570 hc        1 MOL      0.090588
     31 H11         2.5130    4.0820   -0.1550 hc        1 MOL      0.090588
     32 H12         2.7710    6.4000   -0.0830 hc        1 MOL      0.002714
     33 H13         1.4100    6.5450   -1.2160 hc        1 MOL      0.002714
     34 H14         2.7830    5.5650   -3.0500 hc        1 MOL     -0.007408
     35 H15         4.1220    5.1610   -1.8850 hc        1 MOL     -0.007408
     36 H16         4.3720    7.3960   -1.4040 hx        1 MOL      0.058000
     37 H17         2.9900    7.8030   -2.4900 hx        1 MOL      0.058000
     38 H18         5.4350    8.0360   -3.3920 hn        1 MOL      0.300713
     39 H19         5.3880    6.4300   -3.3610 hn        1 MOL      0.300713
     40 H20         4.3710    7.1920   -4.3580 hn        1 MOL      0.300713
     41 N4         -1.5430    4.7580   -0.3810 n         1 MOL     -0.043225
     42 C13        -2.7890    5.3210   -0.8680 c3        1 MOL     -0.013169
     43 C14        -4.0510    4.9020   -0.0660 c         1 MOL      0.466497
     44 O6         -5.1280    5.4030   -0.3250 o         1 MOL     -0.521437
     45 C15        -2.9800    5.1550   -2.3770 c3        1 MOL     -0.291362
     46 C16        -2.9000    3.7390   -2.9760 c         1 MOL      0.661934
     47 O7         -3.3920    3.4310   -4.1310 o         1 MOL     -0.669938
     48 O8         -2.3590    2.8540   -2.2420 o         1 MOL     -0.669938
     49 H21        -1.3150    3.7840   -0.4420 hn        1 MOL      0.101249
     50 H22        -2.7520    6.3930   -0.6540 h1        1 MOL      0.109597
     51 H23        -2.1080    5.6660   -2.7820 hc        1 MOL      0.077805
     52 H24        -3.9500    5.5790   -2.6160 hc        1 MOL      0.077805
     53 N5         -3.9050    4.0960    0.9960 n         1 MOL     -0.209519
     54 C17        -4.9230    3.7500    1.9510 c3        1 MOL     -0.100793
     55 C18        -5.9330    2.7890    1.3540 c         1 MOL      0.508763
     56 O9         -7.0730    2.6730    1.9050 o         1 MOL     -0.559996
     57 H25        -2.9900    3.6670    1.0330 hn        1 MOL      0.120663
     58 H26        -5.5030    4.5910    2.3280 h1        1 MOL      0.089640
     59 H27        -4.4030    3.2430    2.7590 h1        1 MOL      0.089640
     60 N6         -5.5400    2.0360    0.3090 n         1 MOL     -0.278943
     61 C19        -6.4120    1.1110   -0.3620 c3        1 MOL     -0.049723
     62 C20        -6.4750   -0.3090    0.3430 c         1 MOL      0.350199
     63 O10        -7.2990   -1.1070   -0.1530 o         1 MOL     -0.522370
     64 C21        -5.9320    1.1280   -1.7930 c3        1 MOL     -0.295503
     65 C22        -4.9700    0.0190   -2.0960 c         1 MOL      0.666307
     66 N7         -5.1020   -0.7920   -3.1120 n         1 MOL     -0.743246
     67 O11        -3.8970   -0.0630   -1.4830 o         1 MOL     -0.565789
     68 H28        -4.5940    2.0240   -0.0250 hn        1 MOL      0.225136
     69 H29        -7.4360    1.4730   -0.2780 h1        1 MOL      0.152670
     70 H30        -5.4190    2.0790   -1.9790 hc        1 MOL      0.131167
     71 H31        -6.7390    1.0240   -2.5010 hc        1 MOL      0.131167
     72 H32        -5.9700   -0.6720   -3.6180 hn        1 MOL      0.369586
     73 H33        -4.3500   -1.3830   -3.4230 hn        1 MOL      0.369586
     74 N8         -5.8080   -0.6640    1.3880 n         1 MOL     -0.115351
     75 C23        -5.9670   -1.9370    2.1130 c3        1 MOL     -0.217965
     76 C24        -5.0850   -3.0520    1.6950 c         1 MOL      0.534649
     77 O12        -5.2330   -4.1370    2.2850 o         1 MOL     -0.557277
     78 H34        -5.0080   -0.1330    1.7070 hn        1 MOL      0.178121
     79 H35        -7.0190   -2.2260    2.1120 h1        1 MOL      0.120068
     80 H36        -5.7550   -1.8730    3.1740 h1        1 MOL      0.120068
     81 N9         -4.1400   -2.7910    0.7660 n         1 MOL     -0.094741
     82 C25        -3.0720   -3.7450    0.4190 c3        1 MOL      0.108965
     83 C26        -1.7400   -2.9550    0.3570 c         1 MOL      0.530404
     84 O13        -1.7690   -1.8210   -0.1060 o         1 MOL     -0.608616
     85 C27        -3.2460   -4.2980   -1.0430 c3        1 MOL      0.107859
     86 C28        -4.3180   -5.3360   -1.0980 ca        1 MOL     -0.041685
     87 C29        -5.5890   -4.8700   -1.3190 ca        1 MOL     -0.148683
     88 C30        -4.1120   -6.6860   -1.0370 ca        1 MOL     -0.148683
     89 C31        -6.7350   -5.7600   -1.2940 ca        1 MOL     -0.218618
     90 C32        -5.1260   -7.6270   -1.1320 ca        1 MOL     -0.218618
     91 C33        -6.4770   -7.1400   -1.1560 ca        1 MOL      0.274847
     92 O14        -7.5650   -7.9720   -0.9990 oh        1 MOL     -0.448174
     93 H37        -3.9690   -1.8160    0.5580 hn        1 MOL      0.039449
     94 H38        -2.9550   -4.5710    1.1210 h1        1 MOL      0.018433
     95 H39        -2.3180   -4.7730   -1.3530 hc        1 MOL     -0.011128
     96 H40        -3.4530   -3.4780   -1.7190 hc        1 MOL     -0.011128
     97 H41        -5.8380   -3.8240   -1.3410 ha        1 MOL      0.104284
     98 H42        -3.1260   -7.1260   -0.9430 ha        1 MOL      0.104284
     99 H43        -7.7530   -5.3870   -1.2980 ha        1 MOL      0.141452
    100 H44        -4.9380   -8.6650   -1.3790 ha        1 MOL      0.141452
    101 H45        -7.2910   -8.8960   -0.9670 ho        1 MOL      0.337051
    102 N10        -0.6540   -3.5300    0.8610 n         1 MOL     -0.511010
    103 C34         0.6960   -2.8850    1.0870 c3        1 MOL      0.094690
    104 C35         1.8020   -3.6210    0.3780 c         1 MOL      0.468849
    105 O15         2.0030   -4.8160    0.5920 o         1 MOL     -0.555715
    106 C36         1.0030   -2.7070    2.6170 c3        1 MOL      0.239048
    107 C37        -0.0990   -1.8700    3.1980 c3        1 MOL      0.393608
    108 C38         2.3630   -2.0420    2.8770 c3        1 MOL     -0.395776
    109 C39         0.0930   -1.5590    4.7230 c3        1 MOL     -0.334880
    110 H46        -0.7040   -4.4800    1.1920 hn        1 MOL      0.294863
    111 H47         0.6380   -1.8610    0.7260 h1        1 MOL     -0.031877
    112 H48         1.0430   -3.6760    3.1000 hc        1 MOL     -0.049520
    113 H49        -0.9810   -2.5020    3.1860 hc        1 MOL     -0.105999
    114 H50        -0.2720   -0.9740    2.6080 hc        1 MOL     -0.105999
    115 H51         2.2910   -1.0220    2.4880 hc        1 MOL      0.081373
    116 H52         2.5810   -2.0820    3.9500 hc        1 MOL      0.081373
    117 H53         3.2290   -2.5080    2.3930 hc        1 MOL      0.081373
    118 H54        -0.8300   -1.1440    5.1260 hc        1 MOL      0.069831
    119 H55         0.3610   -2.4400    5.3150 hc        1 MOL      0.069831
    120 H56         0.8140   -0.7960    4.9700 hc        1 MOL      0.069831
    121 N11         2.6160   -2.9790   -0.4830 n         1 MOL     -0.197608
    122 C40         3.6430   -3.6970   -1.2390 c3        1 MOL     -0.095302
    123 C41         5.0060   -3.5600   -0.5250 c         1 MOL      0.436519
    124 O16         5.1920   -2.7770    0.3640 o         1 MOL     -0.271734
    125 C42         3.7350   -3.2120   -2.7520 c3        1 MOL     -0.100778
    126 O17         4.0110   -1.8710   -2.7640 oh        1 MOL     -0.466165
    127 H57         2.4160   -2.0200   -0.7290 hn        1 MOL      0.169776
    128 H58         3.3290   -4.7420   -1.3270 h1        1 MOL      0.095856
    129 H59         2.7820   -3.3670   -3.2550 h1        1 MOL      0.101681
    130 H60         4.4110   -3.8970   -3.2460 h1        1 MOL      0.101681
    131 H61         3.2020   -1.3830   -2.9720 ho        1 MOL      0.364670
    132 N12         5.9980   -4.3230   -1.0180 n         1 MOL     -0.437053
    133 C43         7.3630   -4.1840   -0.3900 c3        1 MOL      0.008843
    134 C44         8.0260   -2.8680   -0.6290 c         1 MOL      0.518861
    135 O18         8.9050   -2.3750    0.0830 o         1 MOL     -0.493498
    136 C45         8.2330   -5.3030   -0.8890 c3        1 MOL     -0.328583
    137 H62         5.9230   -5.0570   -1.7060 hn        1 MOL      0.311664
    138 H63         7.1650   -4.2630    0.6810 h1        1 MOL      0.121931
    139 H64         9.2280   -5.1790   -0.4780 hc        1 MOL      0.105589
    140 H65         7.8240   -6.2910   -0.6430 hc        1 MOL      0.105589
    141 H66         8.2420   -5.2020   -1.9820 hc        1 MOL      0.105589
    142 N13         7.4930   -2.2050   -1.7170 n         1 MOL     -0.429908
    143 C46         7.8510   -0.7850   -1.9980 c3        1 MOL      0.139823
    144 C47         7.3020    0.2480   -0.9030 c         1 MOL      0.344121
    145 O19         7.8950    1.2810   -0.5970 o         1 MOL     -0.508900
    146 C48         7.4500   -0.5040   -3.4280 c3        1 MOL     -0.322865
    147 H67         6.8480   -2.6230   -2.3700 hn        1 MOL      0.303972
    148 H68         8.9300   -0.8130   -1.8160 h1        1 MOL      0.068903
    149 H69         7.7440    0.5210   -3.6600 hc        1 MOL      0.083372
    150 H70         8.0220   -1.2460   -3.9840 hc        1 MOL      0.083372
    151 H71         6.4090   -0.7700   -3.5970 hc        1 MOL      0.083372
    152 N14         6.1220   -0.1200   -0.4150 n         1 MOL      0.045991
    153 C49         5.4200    0.6350    0.6210 c3        1 MOL     -0.306676
    154 C50         5.9490    0.2480    1.9920 c         1 MOL      0.555603
    155 O20         5.9830    1.1090    2.8680 o         1 MOL     -0.541609
    156 C51         3.9240    0.2700    0.5810 c3        1 MOL      0.108430
    157 C52         3.2320    0.8740   -0.7300 c3        1 MOL      0.343301
    158 C53         1.7790    0.4600   -0.8450 c         1 MOL      0.382658
    159 O21         0.9450    1.0440   -0.1690 o         1 MOL     -0.566181
    160 O22         1.3830   -0.4410   -1.5700 o         1 MOL     -0.566181
    161 H72         5.6900   -0.9740   -0.7270 hn        1 MOL     -0.010618
    162 H73         5.4760    1.7180    0.5540 h1        1 MOL      0.139677
    163 H74         3.4000    0.8120    1.3740 hc        1 MOL      0.047417
    164 H75         3.7600   -0.8090    0.6200 hc        1 MOL      0.047417
    165 H76         3.7820    0.5990   -1.6210 hc        1 MOL     -0.137296
    166 H77         3.2020    1.9650   -0.7020 hc        1 MOL     -0.137296
    167 N15         6.4060   -1.0110    2.2640 n         1 MOL     -0.133840
    168 C54         7.1640   -1.4760    3.4370 c3        1 MOL     -0.415986
    169 H78         7.0370   -2.5530    3.5470 h1        1 MOL      0.150949
    170 H79         8.2220   -1.2480    3.3020 h1        1 MOL      0.150949
    171 H80         6.7960   -0.9740    4.3310 h1        1 MOL      0.150949
    172 H81         6.2690   -1.7120    1.5540 hn        1 MOL      0.086049
    173 Ca1        -1.2630    0.6290   -1.5740 Ca        1 MOL      1.713695
    174 O23        -2.5380    0.9620   -4.3570 oh        1 MOL     -0.856637
    175 H82        -1.8190    0.9330   -4.9800 ho        1 MOL      0.402067
    176 H83        -2.6960    1.8980   -4.2190 ho        1 MOL      0.402067
    177 O24        -0.9810   -1.5450   -3.2200 oh        1 MOL     -0.856637
    178 H84        -1.6690   -1.8890   -3.7960 ho        1 MOL      0.402067
    179 H85        -0.3600   -2.2680   -3.1210 ho        1 MOL      0.402067
    180 O25         0.4490    1.9750   -3.2440 oh        1 MOL     -0.856637
    181 H86         0.3320    2.9000   -3.4480 ho        1 MOL      0.402067
    182 H87         1.1720    1.6970   -3.8100 ho        1 MOL      0.402067
@<TRIPOS>BOND
     1    1    2 1   
     2    1    4 1   
     3    1    5 1   
     4    1    6 1   
     5    2    3 2   
     6    2    7 1   
     7    7    8 1   
     8    7   15 1   
     9    8    9 1   
    10    8   11 1   
    11    8   16 1   
    12    9   10 2   
    13    9   19 1   
    14   11   12 1   
    15   11   17 1   
    16   11   18 1   
    17   12   13 1   
    18   12   14 1   
    19   19   20 1   
    20   19   28 1   
    21   20   21 1   
    22   20   23 1   
    23   20   29 1   
    24   21   22 2   
    25   21   41 1   
    26   23   24 1   
    27   23   30 1   
    28   23   31 1   
    29   24   25 1   
    30   24   32 1   
    31   24   33 1   
    32   25   26 1   
    33   25   34 1   
    34   25   35 1   
    35   26   27 1   
    36   26   36 1   
    37   26   37 1   
    38   27   38 1   
    39   27   39 1   
    40   27   40 1   
    41   41   42 1   
    42   41   49 1   
    43   42   43 1   
    44   42   45 1   
    45   42   50 1   
    46   43   44 2   
    47   43   53 1   
    48   45   46 1   
    49   45   51 1   
    50   45   52 1   
    51   46   47 1   
    52   46   48 1   
    53   53   54 1   
    54   53   57 1   
    55   54   55 1   
    56   54   58 1   
    57   54   59 1   
    58   55   56 2   
    59   55   60 1   
    60   60   61 1   
    61   60   68 1   
    62   61   62 1   
    63   61   64 1   
    64   61   69 1   
    65   62   63 2   
    66   62   74 1   
    67   64   65 1   
    68   64   70 1   
    69   64   71 1   
    70   65   66 1   
    71   65   67 2   
    72   66   72 1   
    73   66   73 1   
    74   74   75 1   
    75   74   78 1   
    76   75   76 1   
    77   75   79 1   
    78   75   80 1   
    79   76   77 2   
    80   76   81 1   
    81   81   82 1   
    82   81   93 1   
    83   82   83 1   
    84   82   85 1   
    85   82   94 1   
    86   83   84 2   
    87   83  102 1   
    88   85   86 1   
    89   85   95 1   
    90   85   96 1   
    91   86   87 ar  
    92   86   88 ar  
    93   87   89 ar  
    94   87   97 1   
    95   88   90 ar  
    96   88   98 1   
    97   89   91 ar  
    98   89   99 1   
    99   90   91 ar  
   100   90  100 1   
   101   91   92 1   
   102   92  101 1   
   103  102  103 1   
   104  102  110 1   
   105  103  104 1   
   106  103  106 1   
   107  103  111 1   
   108  104  105 2   
   109  104  121 1   
   110  106  107 1   
   111  106  108 1   
   112  106  112 1   
   113  107  109 1   
   114  107  113 1   
   115  107  114 1   
   116  108  115 1   
   117  108  116 1   
   118  108  117 1   
   119  109  118 1   
   120  109  119 1   
   121  109  120 1   
   122  121  122 1   
   123  121  127 1   
   124  122  123 1   
   125  122  125 1   
   126  122  128 1   
   127  123  124 2   
   128  123  132 1   
   129  125  126 1   
   130  125  129 1   
   131  125  130 1   
   132  126  131 1   
   133  132  133 1   
   134  132  137 1   
   135  133  134 1   
   136  133  136 1   
   137  133  138 1   
   138  134  135 2   
   139  134  142 1   
   140  136  139 1   
   141  136  140 1   
   142  136  141 1   
   143  142  143 1   
   144  142  147 1   
   145  143  144 1   
   146  143  146 1   
   147  143  148 1   
   148  144  145 2   
   149  144  152 1   
   150  146  149 1   
   151  146  150 1   
   152  146  151 1   
   153  152  153 1   
   154  152  161 1   
   155  153  154 1   
   156  153  156 1   
   157  153  162 1   
   158  154  155 2   
   159  154  167 1   
   160  156  157 1   
   161  156  163 1   
   162  156  164 1   
   163  157  158 1   
   164  157  165 1   
   165  157  166 1   
   166  158  159 1   
   167  158  160 1   
   168  167  168 1   
   169  167  172 1   
   170  168  169 1   
   171  168  170 1   
   172  168  171 1   
   173  174  175 1   
   174  174  176 1   
   175  177  178 1   
   176  177  179 1   
   177  180  181 1   
   178  180  182 1   
@<TRIPOS>SUBSTRUCTURE
     1 MOL         1 TEMP              0 ****  ****    0 ROOT
