@<TRIPOS>MOLECULE
MOL
  172   171     1     0     0
SMALL
resp


@<TRIPOS>ATOM
      1 C1          0.2210   -2.5980    6.1130 c3        1 MOL     -0.417468
      2 C2          0.5760   -2.6430    4.6200 c         1 MOL      0.770787
      3 O1         -0.1380   -3.1830    3.8090 o         1 MOL     -0.585977
      4 H1          1.1380   -2.5700    6.7030 hc        1 MOL      0.099599
      5 H2         -0.3700   -1.7050    6.3200 hc        1 MOL      0.099599
      6 H3         -0.3540   -3.4840    6.3780 hc        1 MOL      0.099599
      7 N1          1.7640   -2.1980    4.2150 n         1 MOL     -0.597384
      8 C3          2.2020   -2.0500    2.7860 c3        1 MOL      0.248234
      9 C4          2.5150   -3.4710    2.2270 c         1 MOL      0.484134
     10 O2          3.2520   -4.2700    2.8950 o         1 MOL     -0.603056
     11 C5          3.4410   -1.1670    2.7640 c3        1 MOL     -0.390926
     12 C6          3.9990   -0.7730    1.3940 c         1 MOL      0.854796
     13 O3          3.2750   -1.0100    0.3720 o         1 MOL     -0.705712
     14 O4          5.1310   -0.3470    1.2900 o         1 MOL     -0.705712
     15 H4          2.4030   -1.9240    4.9510 hn        1 MOL      0.283417
     16 H5          1.3920   -1.5550    2.2390 h1        1 MOL      0.060032
     17 H6          4.1420   -1.7480    3.3630 hc        1 MOL      0.087984
     18 H7          3.0750   -0.2770    3.2700 hc        1 MOL      0.087984
     19 N2          2.0040   -3.7830    1.0510 n         1 MOL     -0.196855
     20 C7          2.2010   -5.0030    0.2980 c3        1 MOL      0.193118
     21 C8          3.2920   -4.9860   -0.7820 c         1 MOL      0.261953
     22 O5          3.8360   -6.0470   -1.1120 o         1 MOL     -0.501074
     23 C9          0.9130   -5.3860   -0.4750 c3        1 MOL     -0.330385
     24 H8          1.6770   -2.9530    0.5810 hn        1 MOL     -0.008891
     25 H9          2.4500   -5.8430    0.9530 h1        1 MOL      0.056042
     26 H10         0.7330   -4.7810   -1.3650 hc        1 MOL      0.094695
     27 H11         1.1100   -6.4140   -0.7930 hc        1 MOL      0.094695
     28 H12         0.0250   -5.3200    0.1440 hc        1 MOL      0.094695
     29 N3          3.5830   -3.8030   -1.3820 n         1 MOL      0.010324
     30 C10         4.8070   -3.5880   -2.1820 c3        1 MOL     -0.305326
     31 C11         6.1470   -3.4080   -1.5060 c         1 MOL      0.546926
     32 O6          7.1830   -3.9160   -2.0240 o         1 MOL     -0.558479
     33 C12         4.6810   -2.4330   -3.1290 c3        1 MOL      0.273980
     34 C13         3.3010   -2.0640   -3.6520 c         1 MOL      0.490558
     35 O7          2.9660   -2.6130   -4.7500 o         1 MOL     -0.654870
     36 O8          2.7070   -1.1650   -3.0010 o         1 MOL     -0.654870
     37 H13         3.0060   -2.9940   -1.2120 hn        1 MOL      0.171971
     38 H14         4.8610   -4.4880   -2.8060 h1        1 MOL      0.110592
     39 H15         5.3500   -2.6290   -3.9590 hc        1 MOL     -0.052986
     40 H16         5.1170   -1.5740   -2.6210 hc        1 MOL     -0.052986
     41 N4          6.2440   -2.7220   -0.3700 n         1 MOL     -0.315559
     42 C14         7.4400   -2.1410    0.1500 c3        1 MOL     -0.076117
     43 C15         7.7500   -0.7430   -0.4270 c         1 MOL      0.483063
     44 O9          8.9460   -0.4520   -0.5580 o         1 MOL     -0.585930
     45 H17         5.3880   -2.3640    0.0250 hn        1 MOL      0.227486
     46 H18         8.3610   -2.6480   -0.1250 h1        1 MOL      0.086999
     47 H19         7.4010   -2.0670    1.2370 h1        1 MOL      0.086999
     48 N5          6.7000   -0.0310   -0.9620 n         1 MOL     -0.051837
     49 C16         6.9350    1.2710   -1.6860 c3        1 MOL     -0.071714
     50 C17         6.7080    2.4910   -0.8250 c         1 MOL      0.461892
     51 O10         6.7930    3.5870   -1.4000 o         1 MOL     -0.565357
     52 C18         6.0960    1.3090   -2.9890 c3        1 MOL     -0.168059
     53 C19         4.6940    1.4540   -2.6160 c         1 MOL      0.691697
     54 N6          3.9120    1.6750   -3.5860 n         1 MOL     -0.727791
     55 O11         4.2200    1.3810   -1.5170 o         1 MOL     -0.561827
     56 H20         5.7710   -0.3350   -0.7020 hn        1 MOL     -0.069283
     57 H21         7.9740    1.2860   -2.0120 h1        1 MOL      0.108366
     58 H22         6.2560    0.3510   -3.4850 hc        1 MOL      0.063464
     59 H23         6.4600    2.1810   -3.5270 hc        1 MOL      0.063464
     60 H24         4.2120    1.7960   -4.5360 hn        1 MOL      0.325690
     61 H25         2.9360    1.9000   -3.4380 hn        1 MOL      0.325690
     62 N7          6.3420    2.3660    0.4140 n         1 MOL     -0.288596
     63 C20         6.3630    3.4600    1.4020 c3        1 MOL     -0.215920
     64 C21         5.0650    4.2400    1.7190 c         1 MOL      0.563450
     65 O12         5.1320    5.0260    2.6620 o         1 MOL     -0.583773
     66 H26         6.0700    1.4530    0.7630 hn        1 MOL      0.296939
     67 H27         7.1510    4.1790    1.1670 h1        1 MOL      0.118495
     68 H28         6.6060    3.0180    2.3660 h1        1 MOL      0.118495
     69 N8          3.9470    4.0260    1.0190 n         1 MOL     -0.268434
     70 C22         2.6080    4.6450    1.1000 c3        1 MOL     -0.067675
     71 C23         1.5980    3.4950    1.0690 c         1 MOL      0.717429
     72 O13         1.8860    2.4270    0.5620 o         1 MOL     -0.703424
     73 C24         2.2710    5.7600    0.0810 c3        1 MOL      0.274125
     74 C25         3.1830    6.9830    0.1160 c3        1 MOL     -0.377939
     75 O14         2.3100    5.1450   -1.2070 oh        1 MOL     -0.624822
     76 H29         4.1400    3.4260    0.2310 hn        1 MOL      0.236269
     77 H30         2.6490    5.0570    2.1130 h1        1 MOL      0.052933
     78 H31         1.2320    6.0590    0.1720 h1        1 MOL      0.063892
     79 H32         3.0630    5.4250   -1.7490 ho        1 MOL      0.405383
     80 H33         3.1680    7.4440    1.1050 hc        1 MOL      0.105906
     81 H34         4.1910    6.7730   -0.2170 hc        1 MOL      0.105906
     82 H35         2.7750    7.7280   -0.5740 hc        1 MOL      0.105906
     83 N9          0.3790    3.8080    1.5210 n         1 MOL     -0.485408
     84 C26        -0.7130    2.8000    1.7300 c3        1 MOL      0.033918
     85 C27        -1.7990    3.0650    0.6480 c         1 MOL      0.547402
     86 O15        -2.3800    4.1090    0.5630 o         1 MOL     -0.586532
     87 C28        -1.1120    2.7190    3.2380 c3        1 MOL      0.132634
     88 C29         0.0390    2.2130    4.1650 c3        1 MOL      0.182866
     89 C30        -2.5040    2.0170    3.4900 c3        1 MOL     -0.423414
     90 C31        -0.1560    2.6210    5.6760 c3        1 MOL     -0.227993
     91 H36         0.1810    4.7170    1.9210 hn        1 MOL      0.239768
     92 H37        -0.3630    1.8150    1.4160 h1        1 MOL      0.100511
     93 H38        -1.2060    3.7640    3.5510 hc        1 MOL     -0.007867
     94 H39         0.9920    2.6510    3.8670 hc        1 MOL     -0.043759
     95 H40         0.1590    1.1480    3.9730 hc        1 MOL     -0.043759
     96 H41        -3.2230    2.5920    2.8970 hc        1 MOL      0.102261
     97 H42        -2.4010    1.0320    3.0330 hc        1 MOL      0.102261
     98 H43        -2.7120    1.8480    4.5430 hc        1 MOL      0.102261
     99 H44        -0.2370    3.7000    5.5730 hc        1 MOL      0.046033
    100 H45        -1.0720    2.3100    6.1630 hc        1 MOL      0.046033
    101 H46         0.6470    2.2490    6.3140 hc        1 MOL      0.046033
    102 N10        -2.1230    2.0410   -0.1330 n         1 MOL     -0.258434
    103 C32        -3.1110    1.9050   -1.1910 c3        1 MOL      0.029131
    104 C33        -4.4340    1.3810   -0.6380 c         1 MOL      0.540601
    105 O16        -4.5240    0.7440    0.4010 o         1 MOL     -0.412708
    106 C34        -2.6640    0.9090   -2.3330 c3        1 MOL     -0.265883
    107 C35        -1.2360    1.2260   -2.7960 c         1 MOL      0.824531
    108 O17        -0.3680    0.3530   -2.5860 o         1 MOL     -0.730289
    109 O18        -0.9350    2.3170   -3.3200 o         1 MOL     -0.730289
    110 H47        -1.4760    1.2790    0.0150 hn        1 MOL      0.145645
    111 H48        -3.3160    2.8880   -1.6180 h1        1 MOL      0.057693
    112 H49        -3.4150    0.8770   -3.1160 hc        1 MOL      0.069640
    113 H50        -2.6980   -0.0450   -1.8050 hc        1 MOL      0.069640
    114 N11        -5.5210    1.6160   -1.4240 n         1 MOL     -0.700462
    115 C36        -6.8240    1.2340   -0.9750 c3        1 MOL      0.505527
    116 C37        -7.0470   -0.2200   -0.6500 c         1 MOL      0.240935
    117 O19        -7.5800   -0.5670    0.3510 o         1 MOL     -0.452730
    118 C38        -7.7550    1.8450   -2.0310 c3        1 MOL     -0.225066
    119 C39        -9.2600    1.6320   -1.7360 ca        1 MOL      0.111082
    120 C40        -9.7550    1.7710   -0.4090 ca        1 MOL     -0.168032
    121 C41       -10.1780    1.4570   -2.7840 ca        1 MOL     -0.168032
    122 C42       -11.1410    1.5850   -0.1580 ca        1 MOL     -0.134410
    123 C43       -11.5690    1.3070   -2.5150 ca        1 MOL     -0.134410
    124 C44       -12.0310    1.3160   -1.2100 ca        1 MOL     -0.073581
    125 H51        -5.4600    2.0710   -2.3250 hn        1 MOL      0.332032
    126 H52        -7.0630    1.8570   -0.1090 h1        1 MOL      0.021217
    127 H53        -7.6020    1.3330   -2.9880 hc        1 MOL      0.054942
    128 H54        -7.5820    2.9230   -2.1010 hc        1 MOL      0.054942
    129 H55        -9.2060    2.0640    0.4700 ha        1 MOL      0.122269
    130 H56        -9.8610    1.4390   -3.8120 ha        1 MOL      0.122269
    131 H57       -11.3940    1.6690    0.8910 ha        1 MOL      0.115108
    132 H58       -12.2120    1.2280   -3.3790 ha        1 MOL      0.115108
    133 H59       -13.0900    1.2530   -1.0490 ha        1 MOL      0.085732
    134 N12        -6.4870   -1.2270   -1.4360 n         1 MOL     -0.006902
    135 C45        -6.5970   -2.6700   -1.1230 c3        1 MOL     -0.096928
    136 C46        -5.8510   -3.0220    0.1750 c         1 MOL      0.345776
    137 O20        -6.2080   -3.9030    0.9190 o         1 MOL     -0.489064
    138 C47        -6.1210   -3.4240   -2.4130 c3        1 MOL      0.139519
    139 C48        -6.2820   -2.4230   -3.5380 c3        1 MOL     -0.079520
    140 C49        -5.8830   -1.1270   -2.8080 c3        1 MOL     -0.193676
    141 H60        -7.6580   -2.9240   -1.0760 h1        1 MOL      0.079138
    142 H61        -5.0560   -3.6740   -2.3190 hc        1 MOL      0.002256
    143 H62        -6.6290   -4.3770   -2.5370 hc        1 MOL      0.002256
    144 H63        -5.6740   -2.7830   -4.3720 hc        1 MOL      0.035465
    145 H64        -7.3460   -2.4740   -3.7700 hc        1 MOL      0.035465
    146 H65        -4.8150   -1.0320   -2.6190 h1        1 MOL      0.087768
    147 H66        -6.1740   -0.2580   -3.3960 h1        1 MOL      0.087768
    148 N13        -4.7030   -2.3550    0.4350 n         1 MOL     -0.220936
    149 C50        -3.8070   -2.4920    1.6580 c3        1 MOL     -0.071688
    150 C51        -4.3490   -1.9890    2.9810 c         1 MOL      0.399762
    151 O21        -4.2220   -2.6350    4.0330 o         1 MOL     -0.531077
    152 C52        -2.5220   -1.7290    1.3400 c3        1 MOL      0.008446
    153 C53        -1.6550   -2.1760    0.1830 c3        1 MOL      0.080979
    154 C54        -0.3890   -1.4240    0.0230 c         1 MOL      0.699181
    155 O22        -0.3010   -0.2120    0.3440 o         1 MOL     -0.730921
    156 O23         0.6250   -1.9390   -0.5350 o         1 MOL     -0.730921
    157 H67        -4.5310   -1.5920   -0.2130 hn        1 MOL      0.217217
    158 H68        -3.5940   -3.5500    1.7790 h1        1 MOL      0.125420
    159 H69        -1.9020   -1.6810    2.2380 hc        1 MOL      0.013333
    160 H70        -2.8320   -0.7140    1.1170 hc        1 MOL      0.013333
    161 H71        -2.3650   -2.0180   -0.6340 hc        1 MOL     -0.027254
    162 H72        -1.4670   -3.2510    0.2150 hc        1 MOL     -0.027254
    163 N14        -5.1420   -0.8740    2.9180 n         1 MOL      0.032488
    164 C55        -6.0950   -0.2780    3.8580 c3        1 MOL     -0.236740
    165 H73        -5.5540    0.1430    4.7050 h1        1 MOL      0.084659
    166 H74        -6.6550    0.5110    3.3570 h1        1 MOL      0.084659
    167 H75        -6.7840   -1.0440    4.2130 h1        1 MOL      0.084659
    168 H76        -5.1060   -0.4030    2.0240 hn        1 MOL      0.032561
    169 Ca1         1.8120    0.2560   -1.1790 Ca        1 MOL      1.719163
    170 O24         1.4380    2.7560   -2.6420 oh        1 MOL     -0.800512
    171 H77         1.6220    3.6910   -2.5520 ho        1 MOL      0.393259
    172 H78         0.5000    2.7140   -2.7880 ho        1 MOL      0.393259
@<TRIPOS>BOND
     1    1    2 1   
     2    1    4 1   
     3    1    5 1   
     4    1    6 1   
     5    2    3 2   
     6    2    7 1   
     7    7    8 1   
     8    7   15 1   
     9    8    9 1   
    10    8   11 1   
    11    8   16 1   
    12    9   10 2   
    13    9   19 1   
    14   11   12 1   
    15   11   17 1   
    16   11   18 1   
    17   12   13 1   
    18   12   14 1   
    19   19   20 1   
    20   19   24 1   
    21   20   21 1   
    22   20   23 1   
    23   20   25 1   
    24   21   22 2   
    25   21   29 1   
    26   23   26 1   
    27   23   27 1   
    28   23   28 1   
    29   29   30 1   
    30   29   37 1   
    31   30   31 1   
    32   30   33 1   
    33   30   38 1   
    34   31   32 2   
    35   31   41 1   
    36   33   34 1   
    37   33   39 1   
    38   33   40 1   
    39   34   35 1   
    40   34   36 1   
    41   41   42 1   
    42   41   45 1   
    43   42   43 1   
    44   42   46 1   
    45   42   47 1   
    46   43   44 2   
    47   43   48 1   
    48   48   49 1   
    49   48   56 1   
    50   49   50 1   
    51   49   52 1   
    52   49   57 1   
    53   50   51 2   
    54   50   62 1   
    55   52   53 1   
    56   52   58 1   
    57   52   59 1   
    58   53   54 1   
    59   53   55 2   
    60   54   60 1   
    61   54   61 1   
    62   62   63 1   
    63   62   66 1   
    64   63   64 1   
    65   63   67 1   
    66   63   68 1   
    67   64   65 2   
    68   64   69 1   
    69   69   70 1   
    70   69   76 1   
    71   70   71 1   
    72   70   73 1   
    73   70   77 1   
    74   71   72 2   
    75   71   83 1   
    76   73   74 1   
    77   73   75 1   
    78   73   78 1   
    79   74   80 1   
    80   74   81 1   
    81   74   82 1   
    82   75   79 1   
    83   83   84 1   
    84   83   91 1   
    85   84   85 1   
    86   84   87 1   
    87   84   92 1   
    88   85   86 2   
    89   85  102 1   
    90   87   88 1   
    91   87   89 1   
    92   87   93 1   
    93   88   90 1   
    94   88   94 1   
    95   88   95 1   
    96   89   96 1   
    97   89   97 1   
    98   89   98 1   
    99   90   99 1   
   100   90  100 1   
   101   90  101 1   
   102  102  103 1   
   103  102  110 1   
   104  103  104 1   
   105  103  106 1   
   106  103  111 1   
   107  104  105 2   
   108  104  114 1   
   109  106  107 1   
   110  106  112 1   
   111  106  113 1   
   112  107  108 1   
   113  107  109 1   
   114  114  115 1   
   115  114  125 1   
   116  115  116 1   
   117  115  118 1   
   118  115  126 1   
   119  116  117 2   
   120  116  134 1   
   121  118  119 1   
   122  118  127 1   
   123  118  128 1   
   124  119  120 ar  
   125  119  121 ar  
   126  120  122 ar  
   127  120  129 1   
   128  121  123 ar  
   129  121  130 1   
   130  122  124 ar  
   131  122  131 1   
   132  123  124 ar  
   133  123  132 1   
   134  124  133 1   
   135  134  135 1   
   136  134  140 1   
   137  135  136 1   
   138  135  138 1   
   139  135  141 1   
   140  136  137 2   
   141  136  148 1   
   142  138  139 1   
   143  138  142 1   
   144  138  143 1   
   145  139  140 1   
   146  139  144 1   
   147  139  145 1   
   148  140  146 1   
   149  140  147 1   
   150  148  149 1   
   151  148  157 1   
   152  149  150 1   
   153  149  152 1   
   154  149  158 1   
   155  150  151 2   
   156  150  163 1   
   157  152  153 1   
   158  152  159 1   
   159  152  160 1   
   160  153  154 1   
   161  153  161 1   
   162  153  162 1   
   163  154  155 1   
   164  154  156 1   
   165  163  164 1   
   166  163  168 1   
   167  164  165 1   
   168  164  166 1   
   169  164  167 1   
   170  170  171 1   
   171  170  172 1   
@<TRIPOS>SUBSTRUCTURE
     1 MOL         1 TEMP              0 ****  ****    0 ROOT
