@<TRIPOS>MOLECULE
MOL
  189   185     1     0     0
SMALL
resp


@<TRIPOS>ATOM
      1 C1          0.0980    3.3790   -4.9600 c3        1 MOL     -0.306020
      2 C2          0.5760    3.0140   -3.5370 c         1 MOL      0.706690
      3 O1          0.1020    3.5590   -2.5400 o         1 MOL     -0.649312
      4 H1         -0.9330    3.7310   -4.9180 hc        1 MOL      0.076616
      5 H2          0.7330    4.1660   -5.3670 hc        1 MOL      0.076616
      6 H3          0.1550    2.4990   -5.6010 hc        1 MOL      0.076616
      7 N1          1.5860    2.1860   -3.4640 n         1 MOL     -0.495122
      8 C3          2.3250    1.7980   -2.2900 c3        1 MOL      0.333744
      9 C4          3.1210    2.9410   -1.6350 c         1 MOL      0.161503
     10 O2          4.2170    3.3280   -2.0200 o         1 MOL     -0.511627
     11 C5          3.3210    0.6220   -2.6560 c3        1 MOL     -0.132895
     12 C6          4.0010    0.0490   -1.3910 c         1 MOL      0.736610
     13 O3          4.9470   -0.6900   -1.6430 o         1 MOL     -0.666805
     14 O4          3.5880    0.3750   -0.2230 o         1 MOL     -0.666805
     15 H4          2.0160    1.9360   -4.3510 hn        1 MOL      0.266275
     16 H5          1.6370    1.4040   -1.5410 h1        1 MOL     -0.076404
     17 H6          3.9800    0.9590   -3.4540 hc        1 MOL      0.031997
     18 H7          2.7110   -0.1680   -3.0940 hc        1 MOL      0.031997
     19 N2          2.5390    3.4930   -0.5100 n         1 MOL      0.009917
     20 C7          3.0250    4.7160    0.1780 c3        1 MOL      0.024445
     21 C8          3.9750    4.5180    1.4230 c         1 MOL      0.397163
     22 O5          4.6510    5.4880    1.7110 o         1 MOL     -0.563712
     23 C9          1.8170    5.6470    0.5820 c3        1 MOL      0.104388
     24 C10         0.9270    6.1060   -0.5510 c3        1 MOL     -0.109993
     25 C11         1.6490    6.6450   -1.8000 c3        1 MOL     -0.242087
     26 C12         2.5060    7.8610   -1.5180 c3        1 MOL      0.203219
     27 N3          3.4410    8.2090   -2.5050 n4        1 MOL     -0.475778
     28 H8          1.6570    3.1050   -0.1890 hn        1 MOL      0.197570
     29 H9          3.5520    5.3160   -0.5650 h1        1 MOL      0.025287
     30 H10         2.2900    6.5240    1.0320 hc        1 MOL     -0.019771
     31 H11         1.2530    5.0190    1.2760 hc        1 MOL     -0.019771
     32 H12         0.1830    6.7890   -0.1340 hc        1 MOL      0.070873
     33 H13         0.3130    5.2470   -0.8510 hc        1 MOL      0.070873
     34 H14         0.9270    6.8660   -2.5980 hc        1 MOL      0.095774
     35 H15         2.1430    5.8820   -2.4120 hc        1 MOL      0.095774
     36 H16         3.0130    7.6590   -0.5740 hx        1 MOL      0.033181
     37 H17         1.8140    8.6820   -1.3320 hx        1 MOL      0.033181
     38 H18         4.1010    8.9030   -2.1820 hn        1 MOL      0.358627
     39 H19         4.0550    7.4170   -2.6450 hn        1 MOL      0.358627
     40 H20         2.9920    8.6080   -3.3170 hn        1 MOL      0.358627
     41 N4          4.0890    3.3130    1.9580 n         1 MOL     -0.192004
     42 C13         5.1400    2.9470    2.9110 c3        1 MOL      0.054439
     43 C14         6.0960    1.8810    2.3810 c         1 MOL      0.473065
     44 O6          7.0580    1.6270    3.0420 o         1 MOL     -0.492718
     45 C15         4.4870    2.5080    4.1980 c3        1 MOL     -0.263683
     46 C16         3.3990    1.4410    4.0450 c         1 MOL      0.728719
     47 O7          2.6090    1.3120    4.9780 o         1 MOL     -0.649267
     48 O8          3.3300    0.8050    2.9320 o         1 MOL     -0.649267
     49 H21         3.5550    2.5530    1.5450 hn        1 MOL      0.075374
     50 H22         5.7510    3.8080    3.1610 h1        1 MOL      0.102391
     51 H23         4.0690    3.4370    4.5790 hc        1 MOL      0.064808
     52 H24         5.3500    2.3840    4.8490 hc        1 MOL      0.064808
     53 N5          5.9600    1.5160    1.0480 n         1 MOL     -0.397300
     54 C17         6.9980    0.9340    0.1220 c3        1 MOL      0.041830
     55 C18         7.4410   -0.3860    0.6030 c         1 MOL      0.413024
     56 O9          8.6570   -0.7150    0.4930 o         1 MOL     -0.580000
     57 H25         5.0770    1.6380    0.5690 hn        1 MOL      0.210056
     58 H26         7.8580    1.6070    0.0400 h1        1 MOL      0.064833
     59 H27         6.6410    0.8700   -0.9080 h1        1 MOL      0.064833
     60 N6          6.5090   -1.1320    1.2190 n         1 MOL     -0.134961
     61 C19         6.6350   -2.4900    1.7700 c3        1 MOL     -0.104742
     62 C20         6.4080   -3.5330    0.6780 c         1 MOL      0.469389
     63 O10         6.4250   -4.7610    0.8890 o         1 MOL     -0.549553
     64 C21         5.7050   -2.6170    2.9930 c3        1 MOL     -0.239784
     65 C22         4.1870   -2.5060    2.6160 c         1 MOL      0.691288
     66 O11         3.3940   -2.2750    3.5970 o         1 MOL     -0.688492
     67 O12         3.7290   -2.5710    1.4520 o         1 MOL     -0.688492
     68 H28         5.5700   -0.7580    1.3010 hn        1 MOL      0.151580
     69 H29         7.6130   -2.7490    2.1700 h1        1 MOL      0.132830
     70 H30         5.8910   -1.7530    3.6220 hc        1 MOL      0.096524
     71 H31         5.9480   -3.5380    3.5260 hc        1 MOL      0.096524
     72 N7          6.3080   -3.1030   -0.5680 n         1 MOL     -0.263796
     73 C23         6.0460   -4.0290   -1.6950 c3        1 MOL     -0.302743
     74 C24         4.7480   -4.7720   -1.7960 c         1 MOL      0.606145
     75 O13         4.6820   -5.7540   -2.5360 o         1 MOL     -0.566078
     76 H32         6.1720   -2.1250   -0.7870 hn        1 MOL      0.278154
     77 H33         6.8030   -4.8020   -1.6240 h1        1 MOL      0.134495
     78 H34         6.1480   -3.4250   -2.6000 h1        1 MOL      0.134495
     79 N8          3.7250   -4.2910   -1.0840 n         1 MOL     -0.229345
     80 C25         2.3180   -4.4860   -1.3550 c3        1 MOL     -0.318703
     81 C26         1.4200   -3.2660   -1.3960 c         1 MOL      0.933855
     82 O14         1.5960   -2.3050   -0.6640 o         1 MOL     -0.724349
     83 C27         1.7020   -5.4220   -0.3330 c3        1 MOL      0.501879
     84 C28         2.1190   -6.8350   -0.5350 c3        1 MOL     -0.437989
     85 O15         2.0120   -5.1230    0.9860 oh        1 MOL     -0.607039
     86 H35         3.8890   -3.5050   -0.4750 hn        1 MOL      0.200176
     87 H36         2.2660   -4.9670   -2.3350 h1        1 MOL      0.107558
     88 H37         0.6240   -5.4280   -0.5020 h1        1 MOL      0.011753
     89 H38         2.9690   -5.0500    0.9940 ho        1 MOL      0.395225
     90 H39         1.7670   -7.1700   -1.5120 hc        1 MOL      0.103337
     91 H40         3.2050   -6.9580   -0.4710 hc        1 MOL      0.103337
     92 H41         1.7680   -7.4120    0.3170 hc        1 MOL      0.103337
     93 N9          0.4140   -3.3160   -2.2820 n         1 MOL     -0.760214
     94 C29        -0.7140   -2.4200   -2.2660 c3        1 MOL      0.217335
     95 C30        -1.8890   -2.9000   -1.3860 c         1 MOL      0.508153
     96 O16        -2.2800   -4.0560   -1.5770 o         1 MOL     -0.578200
     97 C31        -1.2010   -2.0980   -3.6990 c3        1 MOL      0.103372
     98 C32        -0.1440   -1.4020   -4.5460 c3        1 MOL      0.272670
     99 C33        -2.5380   -1.2370   -3.7090 c3        1 MOL     -0.230426
    100 C34        -0.3770   -1.3080   -6.0720 c3        1 MOL     -0.233173
    101 H42         0.3820   -4.1290   -2.8810 hn        1 MOL      0.318520
    102 H43        -0.2780   -1.4980   -1.8820 h1        1 MOL      0.089952
    103 H44        -1.3990   -3.0660   -4.1600 hc        1 MOL     -0.010373
    104 H45         0.7340   -2.0310   -4.3790 hc        1 MOL     -0.087215
    105 H46         0.2270   -0.4450   -4.1970 hc        1 MOL     -0.087215
    106 H47        -2.9050   -1.1490   -4.7250 hc        1 MOL      0.034015
    107 H48        -3.3110   -1.7810   -3.1590 hc        1 MOL      0.034015
    108 H49        -2.2410   -0.3160   -3.2160 hc        1 MOL      0.034015
    109 H50        -0.2820   -2.3130   -6.4730 hc        1 MOL      0.046321
    110 H51        -1.2920   -0.7980   -6.3490 hc        1 MOL      0.046321
    111 H52         0.4530   -0.7130   -6.4740 hc        1 MOL      0.046321
    112 N10        -2.4930   -2.0630   -0.5340 n         1 MOL     -0.220337
    113 C35        -3.7350   -2.5000    0.1310 c3        1 MOL      0.032632
    114 C36        -5.0170   -1.9990   -0.5930 c         1 MOL      0.397379
    115 O17        -4.9570   -1.0680   -1.3870 o         1 MOL     -0.391042
    116 C37        -3.8400   -2.0610    1.5820 c3        1 MOL      0.236040
    117 C38        -2.7140   -2.5190    2.4880 c3        1 MOL     -0.423453
    118 O18        -3.9650   -0.6540    1.5940 oh        1 MOL     -0.535489
    119 H53        -2.1910   -1.1020   -0.4610 hn        1 MOL      0.114751
    120 H54        -3.7970   -3.5880    0.1800 h1        1 MOL      0.085278
    121 H55        -4.7660   -2.4540    1.9960 h1        1 MOL      0.002476
    122 H56        -3.2640   -0.2890    2.1370 ho        1 MOL      0.396706
    123 H57        -3.0730   -2.4210    3.5170 hc        1 MOL      0.127077
    124 H58        -2.4610   -3.5760    2.3860 hc        1 MOL      0.127077
    125 H59        -1.8360   -1.8900    2.3340 hc        1 MOL      0.127077
    126 N11        -6.1880   -2.5390   -0.2460 n         1 MOL     -0.296011
    127 C39        -7.4520   -1.9480   -0.7790 c3        1 MOL     -0.004200
    128 C40        -7.7260   -0.4770   -0.5250 c         1 MOL      0.314878
    129 O19        -8.2210    0.3460   -1.3650 o         1 MOL     -0.458077
    130 C41        -8.5760   -2.7820   -0.2920 c3        1 MOL      0.438382
    131 C42        -9.7180   -2.9090   -1.2010 c3        1 MOL     -0.232344
    132 O20        -8.1890   -4.1650   -0.1700 oh        1 MOL     -0.619874
    133 H60        -6.2610   -3.3520    0.3510 hn        1 MOL      0.216849
    134 H61        -7.5440   -1.9690   -1.8660 h1        1 MOL      0.099213
    135 H62        -8.9240   -2.5030    0.7000 h1        1 MOL     -0.059630
    136 H63        -8.9870   -4.5920    0.1540 ho        1 MOL      0.387654
    137 H64        -9.6710   -3.7590   -1.8860 hc        1 MOL      0.055013
    138 H65       -10.5370   -3.1800   -0.5310 hc        1 MOL      0.055013
    139 H66       -10.0080   -1.9340   -1.5890 hc        1 MOL      0.055013
    140 N12        -7.2510    0.0180    0.6370 n         1 MOL     -0.367101
    141 C43        -7.2270    1.4510    1.0000 c3        1 MOL      0.025566
    142 C44        -6.1330    2.2070    0.2030 c         1 MOL      0.395656
    143 O21        -6.4600    3.3160   -0.1800 o         1 MOL     -0.506657
    144 C45        -7.1230    1.5690    2.5700 c3        1 MOL     -0.222264
    145 C46        -8.2820    1.0950    3.4090 c3        1 MOL      0.280035
    146 C47        -8.1730    1.2670    4.9490 c3        1 MOL     -0.011524
    147 C48        -9.4540    0.7640    5.6950 c3        1 MOL      0.032075
    148 N13       -10.7600    1.4060    5.3970 n4        1 MOL     -0.214112
    149 H67        -6.9640   -0.6490    1.3340 hn        1 MOL      0.277456
    150 H68        -8.1870    1.8470    0.6730 h1        1 MOL      0.110495
    151 H69        -7.1210    2.6150    2.8650 hc        1 MOL      0.048835
    152 H70        -6.2350    1.0680    2.9500 hc        1 MOL      0.048835
    153 H71        -8.4910    0.0390    3.2280 hc        1 MOL     -0.084607
    154 H72        -9.1710    1.6630    3.1310 hc        1 MOL     -0.084607
    155 H73        -8.1100    2.3330    5.1610 hc        1 MOL      0.045724
    156 H74        -7.3220    0.7230    5.3810 hc        1 MOL      0.045724
    157 H75        -9.1500    0.9070    6.7310 hx        1 MOL      0.061948
    158 H76        -9.5270   -0.3200    5.5940 hx        1 MOL      0.061948
    159 H77       -11.0120    1.2430    4.4380 hn        1 MOL      0.276713
    160 H78       -11.5090    0.9040    5.8470 hn        1 MOL      0.276713
    161 H79       -10.8810    2.3910    5.6190 hn        1 MOL      0.276713
    162 N14        -4.9770    1.6650   -0.1580 n         1 MOL     -0.006500
    163 C49        -3.9670    2.3140   -0.9330 c3        1 MOL     -0.173130
    164 C50        -4.3720    2.4830   -2.3950 c         1 MOL      0.398939
    165 O22        -4.2730    3.5410   -2.9990 o         1 MOL     -0.531909
    166 C51        -2.6730    1.5700   -0.7770 c3        1 MOL      0.269491
    167 C52        -1.8340    1.6800    0.5430 c3        1 MOL     -0.154203
    168 C53        -0.4670    1.0000    0.6460 c         1 MOL      0.790431
    169 O23        -0.2920   -0.1950    0.3550 o         1 MOL     -0.751356
    170 O24         0.4550    1.6220    1.1900 o         1 MOL     -0.751356
    171 H80        -4.7170    0.7560    0.1940 hn        1 MOL      0.021403
    172 H81        -3.7360    3.2800   -0.4740 h1        1 MOL      0.091308
    173 H82        -2.0600    1.8750   -1.6230 hc        1 MOL     -0.040621
    174 H83        -2.8390    0.5060   -0.9610 hc        1 MOL     -0.040621
    175 H84        -2.3750    1.4330    1.4560 hc        1 MOL      0.004384
    176 H85        -1.6960    2.7510    0.6290 hc        1 MOL      0.004384
    177 N15        -5.0180    1.4450   -2.8480 n         1 MOL      0.027718
    178 C54        -5.6700    1.3830   -4.1190 c3        1 MOL     -0.336749
    179 H86        -6.7250    1.6270   -3.9970 h1        1 MOL      0.111158
    180 H87        -5.2090    2.0980   -4.7990 h1        1 MOL      0.111158
    181 H88        -5.5760    0.3770   -4.5280 h1        1 MOL      0.111158
    182 H89        -5.2420    0.6440   -2.2800 hn        1 MOL      0.155006
    183 Ca1         1.9480   -0.7220    1.4620 Ca        1 MOL      1.725275
    184 O25         0.5080   -0.3410    3.5830 oh        1 MOL     -0.863439
    185 H90        -0.4170   -0.1530    3.7300 ho        1 MOL      0.398963
    186 H91         0.9600    0.1680    4.2570 ho        1 MOL      0.398963
    187 O26         1.0280   -3.1560    2.3490 oh        1 MOL     -0.863439
    188 H92         1.6510   -2.9960    3.0630 ho        1 MOL      0.398963
    189 H93         1.3460   -3.9540    1.9280 ho        1 MOL      0.398963
@<TRIPOS>BOND
     1    1    2 1   
     2    1    4 1   
     3    1    5 1   
     4    1    6 1   
     5    2    3 2   
     6    2    7 1   
     7    7    8 1   
     8    7   15 1   
     9    8    9 1   
    10    8   11 1   
    11    8   16 1   
    12    9   10 2   
    13    9   19 1   
    14   11   12 1   
    15   11   17 1   
    16   11   18 1   
    17   12   13 1   
    18   12   14 1   
    19   19   20 1   
    20   19   28 1   
    21   20   21 1   
    22   20   23 1   
    23   20   29 1   
    24   21   22 2   
    25   21   41 1   
    26   23   24 1   
    27   23   30 1   
    28   23   31 1   
    29   24   25 1   
    30   24   32 1   
    31   24   33 1   
    32   25   26 1   
    33   25   34 1   
    34   25   35 1   
    35   26   27 1   
    36   26   36 1   
    37   26   37 1   
    38   27   38 1   
    39   27   39 1   
    40   27   40 1   
    41   41   42 1   
    42   41   49 1   
    43   42   43 1   
    44   42   45 1   
    45   42   50 1   
    46   43   44 2   
    47   43   53 1   
    48   45   46 1   
    49   45   51 1   
    50   45   52 1   
    51   46   47 1   
    52   46   48 1   
    53   53   54 1   
    54   53   57 1   
    55   54   55 1   
    56   54   58 1   
    57   54   59 1   
    58   55   56 2   
    59   55   60 1   
    60   60   61 1   
    61   60   68 1   
    62   61   62 1   
    63   61   64 1   
    64   61   69 1   
    65   62   63 2   
    66   62   72 1   
    67   64   65 1   
    68   64   70 1   
    69   64   71 1   
    70   65   66 1   
    71   65   67 1   
    72   72   73 1   
    73   72   76 1   
    74   73   74 1   
    75   73   77 1   
    76   73   78 1   
    77   74   75 2   
    78   74   79 1   
    79   79   80 1   
    80   79   86 1   
    81   80   81 1   
    82   80   83 1   
    83   80   87 1   
    84   81   82 2   
    85   81   93 1   
    86   83   84 1   
    87   83   85 1   
    88   83   88 1   
    89   84   90 1   
    90   84   91 1   
    91   84   92 1   
    92   85   89 1   
    93   93   94 1   
    94   93  101 1   
    95   94   95 1   
    96   94   97 1   
    97   94  102 1   
    98   95   96 2   
    99   95  112 1   
   100   97   98 1   
   101   97   99 1   
   102   97  103 1   
   103   98  100 1   
   104   98  104 1   
   105   98  105 1   
   106   99  106 1   
   107   99  107 1   
   108   99  108 1   
   109  100  109 1   
   110  100  110 1   
   111  100  111 1   
   112  112  113 1   
   113  112  119 1   
   114  113  114 1   
   115  113  116 1   
   116  113  120 1   
   117  114  115 2   
   118  114  126 1   
   119  116  117 1   
   120  116  118 1   
   121  116  121 1   
   122  117  123 1   
   123  117  124 1   
   124  117  125 1   
   125  118  122 1   
   126  126  127 1   
   127  126  133 1   
   128  127  128 1   
   129  127  130 1   
   130  127  134 1   
   131  128  129 2   
   132  128  140 1   
   133  130  131 1   
   134  130  132 1   
   135  130  135 1   
   136  131  137 1   
   137  131  138 1   
   138  131  139 1   
   139  132  136 1   
   140  140  141 1   
   141  140  149 1   
   142  141  142 1   
   143  141  144 1   
   144  141  150 1   
   145  142  143 2   
   146  142  162 1   
   147  144  145 1   
   148  144  151 1   
   149  144  152 1   
   150  145  146 1   
   151  145  153 1   
   152  145  154 1   
   153  146  147 1   
   154  146  155 1   
   155  146  156 1   
   156  147  148 1   
   157  147  157 1   
   158  147  158 1   
   159  148  159 1   
   160  148  160 1   
   161  148  161 1   
   162  162  163 1   
   163  162  171 1   
   164  163  164 1   
   165  163  166 1   
   166  163  172 1   
   167  164  165 2   
   168  164  177 1   
   169  166  167 1   
   170  166  173 1   
   171  166  174 1   
   172  167  168 1   
   173  167  175 1   
   174  167  176 1   
   175  168  169 1   
   176  168  170 1   
   177  177  178 1   
   178  177  182 1   
   179  178  179 1   
   180  178  180 1   
   181  178  181 1   
   182  184  185 1   
   183  184  186 1   
   184  187  188 1   
   185  187  189 1   
@<TRIPOS>SUBSTRUCTURE
     1 MOL         1 TEMP              0 ****  ****    0 ROOT
