@<TRIPOS>MOLECULE
MOL
  186   183     1     0     0
SMALL
resp


@<TRIPOS>ATOM
      1 C1          0.5830   -2.4050    5.9320 c3        1 MOL     -0.340000
      2 C2          0.9230   -2.4160    4.4320 c         1 MOL      0.696129
      3 O1          0.0280   -2.6890    3.6220 o         1 MOL     -0.549573
      4 H1          0.1800   -3.3760    6.2210 hc        1 MOL      0.078936
      5 H2          1.4860   -2.2020    6.5090 hc        1 MOL      0.078936
      6 H3         -0.1580   -1.6300    6.1330 hc        1 MOL      0.078936
      7 N1          2.1170   -1.9630    4.0960 n         1 MOL     -0.630439
      8 C3          2.7710   -1.8730    2.7900 c3        1 MOL      0.362881
      9 C4          3.3400   -3.2160    2.3240 c         1 MOL      0.477984
     10 O2          4.2920   -3.6950    2.8680 o         1 MOL     -0.569766
     11 C5          3.8570   -0.8060    2.8970 c3        1 MOL     -0.368066
     12 C6          4.5640   -0.4360    1.6020 c         1 MOL      0.913785
     13 O3          5.5840    0.3260    1.6010 o         1 MOL     -0.697300
     14 O4          4.0950   -0.7820    0.4760 o         1 MOL     -0.697300
     15 H4          2.6940   -1.5360    4.8120 hn        1 MOL      0.315942
     16 H5          2.0250   -1.5340    2.0760 h1        1 MOL     -0.068014
     17 H6          4.6620   -1.0680    3.5840 hc        1 MOL      0.067266
     18 H7          3.3550    0.1060    3.2150 hc        1 MOL      0.067266
     19 N2          2.6440   -3.7740    1.3300 n         1 MOL     -0.053924
     20 C7          2.8290   -5.2190    1.0290 c3        1 MOL     -0.084897
     21 C8          3.7260   -5.4030   -0.1540 c         1 MOL      0.351491
     22 O5          4.4770   -6.4280   -0.1800 o         1 MOL     -0.558767
     23 C9          1.3950   -5.8020    0.7770 c3        1 MOL      0.256143
     24 C10         0.4770   -5.6720    2.0490 c3        1 MOL      0.095801
     25 C11         1.4810   -7.2900    0.2710 c3        1 MOL     -0.481084
     26 C12        -0.9730   -5.7930    1.6300 c3        1 MOL      0.008884
     27 H8          1.8860   -3.3010    0.8610 hn        1 MOL      0.085942
     28 H9          3.2770   -5.6480    1.9230 h1        1 MOL      0.082294
     29 H10         0.9250   -5.1380    0.0390 hc        1 MOL     -0.008671
     30 H11         0.8250   -4.7300    2.4690 hc        1 MOL     -0.068973
     31 H12         0.7360   -6.4480    2.7710 hc        1 MOL     -0.068973
     32 H13         1.8960   -7.9220    1.0600 hc        1 MOL      0.112440
     33 H14         0.4740   -7.5890   -0.0200 hc        1 MOL      0.112440
     34 H15         2.1070   -7.3000   -0.6120 hc        1 MOL      0.112440
     35 H16        -1.6330   -5.6550    2.4780 hc        1 MOL     -0.005719
     36 H17        -1.2050   -5.0330    0.8830 hc        1 MOL     -0.005719
     37 H18        -1.1920   -6.7720    1.1970 hc        1 MOL     -0.005719
     38 N3          3.8080   -4.4270   -1.0220 n         1 MOL     -0.209480
     39 C13         4.8030   -4.3620   -2.1340 c3        1 MOL      0.067371
     40 C14         6.0840   -3.6720   -1.6240 c         1 MOL      0.459860
     41 O6          7.1830   -3.9470   -2.0860 o         1 MOL     -0.551638
     42 C15         4.2110   -3.7640   -3.4470 c3        1 MOL     -0.357864
     43 C16         3.5190   -2.4220   -3.4200 c         1 MOL      0.794878
     44 O7          3.1930   -1.7990   -2.3400 o         1 MOL     -0.701247
     45 O8          3.1040   -1.9980   -4.5330 o         1 MOL     -0.701247
     46 H19         3.2360   -3.6000   -0.9540 hn        1 MOL      0.216046
     47 H20         5.0300   -5.4150   -2.3120 h1        1 MOL      0.062604
     48 H21         3.5300   -4.4770   -3.9210 hc        1 MOL      0.104318
     49 H22         5.1180   -3.5600   -4.0230 hc        1 MOL      0.104318
     50 N4          6.0480   -2.6740   -0.6720 n         1 MOL     -0.032526
     51 C17         7.1940   -1.8680   -0.2080 c3        1 MOL     -0.099102
     52 C18         7.5940   -0.5740   -1.1020 c         1 MOL      0.476505
     53 O9          8.5430   -0.5360   -1.9070 o         1 MOL     -0.554415
     54 H23         5.1410   -2.4060   -0.3230 hn        1 MOL     -0.053996
     55 H24         8.0460   -2.5410   -0.1750 h1        1 MOL      0.054679
     56 H25         7.0890   -1.4830    0.8070 h1        1 MOL      0.054679
     57 N5          6.7080    0.4340   -1.0340 n         1 MOL     -0.193596
     58 C19         7.0270    1.7860   -1.5780 c3        1 MOL      0.031591
     59 C20         7.1130    2.9500   -0.5450 c         1 MOL      0.470021
     60 O10         7.4820    4.0260   -0.9630 o         1 MOL     -0.546196
     61 C21         6.0820    2.1280   -2.7350 c3        1 MOL     -0.071999
     62 C22         4.5510    2.0990   -2.3700 c         1 MOL      0.668215
     63 O11         3.6980    2.1160   -3.2420 o         1 MOL     -0.721119
     64 O12         4.2430    1.9960   -1.1700 o         1 MOL     -0.721119
     65 H26         5.9400    0.4150   -0.3750 hn        1 MOL      0.002017
     66 H27         8.0170    1.7260   -2.0180 h1        1 MOL      0.060098
     67 H28         6.2170    1.3810   -3.5090 hc        1 MOL      0.022702
     68 H29         6.3910    3.0940   -3.1240 hc        1 MOL      0.022702
     69 N6          6.9290    2.6910    0.7520 n         1 MOL     -0.353519
     70 C23         6.8260    3.6400    1.8520 c3        1 MOL     -0.090156
     71 C24         5.4440    4.3220    1.8740 c         1 MOL      0.466474
     72 O13         5.3070    5.3820    2.4650 o         1 MOL     -0.580032
     73 H30         6.5760    1.7560    0.9170 hn        1 MOL      0.265817
     74 H31         7.5950    4.4230    1.8440 h1        1 MOL      0.086979
     75 H32         6.9070    3.0370    2.7580 h1        1 MOL      0.086979
     76 N7          4.4110    3.7420    1.2350 n         1 MOL     -0.167496
     77 C25         3.1250    4.3330    1.1730 c3        1 MOL      0.066280
     78 C26         2.1650    3.1860    1.3780 c         1 MOL      0.414800
     79 O14         2.4200    2.0320    1.0290 o         1 MOL     -0.606704
     80 C27         2.8300    5.1030   -0.1190 c3        1 MOL      0.330008
     81 C28         3.7030    6.3630   -0.3550 c3        1 MOL     -0.445719
     82 C29         2.9640    7.3680   -1.1840 c         1 MOL      0.705736
     83 N8          2.4630    7.0860   -2.3770 n         1 MOL     -0.836885
     84 O15         2.6020    8.3900   -0.7350 o         1 MOL     -0.575504
     85 H33         4.5610    2.8640    0.7560 hn        1 MOL      0.207652
     86 H34         3.0800    5.0600    1.9880 h1        1 MOL      0.025490
     87 H35         1.7710    5.3690   -0.1410 hc        1 MOL     -0.032356
     88 H36         2.9990    4.5260   -1.0320 hc        1 MOL     -0.032356
     89 H37         4.5240    5.8600   -0.8710 hc        1 MOL      0.115741
     90 H38         4.0440    6.8290    0.5770 hc        1 MOL      0.115741
     91 H39         2.7940    6.2680   -2.8610 hn        1 MOL      0.364879
     92 H40         1.9510    7.8500   -2.8010 hn        1 MOL      0.364879
     93 N9          0.9430    3.5690    1.7870 n         1 MOL     -0.444382
     94 C30        -0.2680    2.6990    1.8890 c3        1 MOL     -0.074203
     95 C31        -1.4290    3.1420    1.0850 c         1 MOL      0.450446
     96 O16        -2.0750    4.1400    1.3550 o         1 MOL     -0.561621
     97 C32        -0.5950    2.5780    3.3900 c3        1 MOL      0.381667
     98 C33        -2.0010    1.9530    3.7480 c3        1 MOL     -0.417366
     99 C34         0.4300    1.6630    3.9860 c3        1 MOL     -0.417366
    100 H41         0.8580    4.5110    2.1330 hn        1 MOL      0.285701
    101 H42        -0.0700    1.6520    1.6500 h1        1 MOL      0.134412
    102 H43        -0.5960    3.5460    3.8820 hc        1 MOL     -0.037343
    103 H44        -1.9640    0.8830    3.5240 hc        1 MOL      0.091068
    104 H45        -2.1750    2.2310    4.7870 hc        1 MOL      0.091068
    105 H46        -2.7700    2.4610    3.1680 hc        1 MOL      0.091068
    106 H47         0.3450    1.7780    5.0670 hc        1 MOL      0.091068
    107 H48         0.1780    0.6720    3.6240 hc        1 MOL      0.091068
    108 H49         1.4580    1.9070    3.6960 hc        1 MOL      0.091068
    109 N10        -1.7480    2.4320   -0.0080 n         1 MOL     -0.217345
    110 C35        -2.8010    2.6260   -1.0220 c3        1 MOL      0.050813
    111 C36        -4.1720    2.1070   -0.4240 c         1 MOL      0.417295
    112 O17        -4.1380    1.3920    0.5620 o         1 MOL     -0.373137
    113 C37        -2.4490    2.1170   -2.4280 c3        1 MOL     -0.270997
    114 C38        -2.9790    0.6930   -2.7660 c         1 MOL      0.564724
    115 N11        -2.1670   -0.3430   -2.5410 n         1 MOL     -0.821158
    116 O18        -4.1660    0.5490   -3.1250 o         1 MOL     -0.554761
    117 H50        -1.2100    1.6010   -0.1890 hn        1 MOL      0.262683
    118 H51        -2.8920    3.7120   -1.0900 h1        1 MOL      0.045963
    119 H52        -1.3770    2.2650   -2.5480 hc        1 MOL      0.095841
    120 H53        -2.8240    2.7740   -3.2120 hc        1 MOL      0.095841
    121 H54        -1.3440   -0.1640   -1.9860 hn        1 MOL      0.450703
    122 H55        -2.4180   -1.2590   -2.9020 hn        1 MOL      0.450703
    123 N12        -5.2890    2.4600   -1.1050 n         1 MOL     -0.532498
    124 C39        -6.6650    2.2450   -0.5550 c3        1 MOL      0.285144
    125 C40        -6.8500    0.7580   -0.3010 c         1 MOL      0.718864
    126 O19        -7.1480    0.3960    0.8350 o         1 MOL     -0.608257
    127 C41        -7.7010    2.7790   -1.5580 c3        1 MOL     -0.165719
    128 C42        -9.1390    2.5510   -1.0330 ca        1 MOL     -0.082381
    129 C43        -9.5840    3.1010    0.1960 ca        1 MOL     -0.096120
    130 C44        -9.9080    1.5510   -1.6550 ca        1 MOL     -0.096120
    131 C45       -10.8810    2.7180    0.6420 ca        1 MOL     -0.328824
    132 C46       -11.1930    1.2090   -1.0970 ca        1 MOL     -0.328824
    133 C47       -11.6520    1.7260    0.0560 ca        1 MOL      0.487567
    134 O20       -12.8580    1.3490    0.4800 oh        1 MOL     -0.554575
    135 H56        -5.2210    3.0050   -1.9520 hn        1 MOL      0.284315
    136 H57        -6.8120    2.7780    0.3790 h1        1 MOL      0.009948
    137 H58        -7.5150    2.2620   -2.4910 hc        1 MOL      0.062548
    138 H59        -7.2910    3.7820   -1.6720 hc        1 MOL      0.062548
    139 H60        -8.9790    3.7940    0.7540 ha        1 MOL      0.140343
    140 H61        -9.6000    0.9760   -2.5190 ha        1 MOL      0.140343
    141 H62       -11.1600    3.1050    1.6140 ha        1 MOL      0.139448
    142 H63       -11.8410    0.5150   -1.6070 ha        1 MOL      0.139448
    143 H64       -13.2460    0.6650   -0.0780 ho        1 MOL      0.379991
    144 N13        -6.4770   -0.1420   -1.1980 n         1 MOL     -0.536573
    145 C48        -6.5590   -1.5820   -0.9920 c3        1 MOL      0.018201
    146 C49        -5.6220   -2.1850    0.1130 c         1 MOL      0.394691
    147 O21        -5.9800   -3.1480    0.8410 o         1 MOL     -0.505812
    148 C50        -6.3310   -2.2570   -2.3390 c3        1 MOL      0.160662
    149 C51        -6.4630   -3.8110   -2.4290 c3        1 MOL     -0.336125
    150 C52        -5.6720   -4.4080   -3.5990 c         1 MOL      0.771955
    151 O22        -4.4830   -4.7850   -3.4620 o         1 MOL     -0.754022
    152 O23        -6.2520   -4.5480   -4.7060 o         1 MOL     -0.754022
    153 H65        -5.7540    0.1650   -1.8480 hn        1 MOL      0.223606
    154 H66        -7.5660   -1.7970   -0.6480 h1        1 MOL      0.087189
    155 H67        -5.2920   -2.1220   -2.6340 hc        1 MOL     -0.018588
    156 H68        -7.0190   -1.8490   -3.0840 hc        1 MOL     -0.018588
    157 H69        -7.5300   -3.9230   -2.6460 hc        1 MOL      0.036171
    158 H70        -6.1930   -4.3330   -1.5050 hc        1 MOL      0.036171
    159 N14        -4.5020   -1.4210    0.4460 n         1 MOL     -0.130624
    160 C53        -3.6270   -1.7960    1.5790 c3        1 MOL     -0.115993
    161 C54        -4.2520   -1.5040    2.9260 c         1 MOL      0.446168
    162 O24        -4.1760   -2.3340    3.8280 o         1 MOL     -0.558672
    163 C55        -2.1970   -1.1830    1.5100 c3        1 MOL     -0.023694
    164 C56        -1.3930   -1.9210    0.4430 c3        1 MOL      0.149571
    165 C57        -0.2130   -1.1280   -0.1090 c         1 MOL      0.548818
    166 O25         0.8130   -1.8290   -0.4040 o         1 MOL     -0.673766
    167 O26        -0.3060    0.0640   -0.3320 o         1 MOL     -0.673766
    168 H71        -4.3200   -0.5490   -0.0390 hn        1 MOL      0.188926
    169 H72        -3.4500   -2.8640    1.5100 h1        1 MOL      0.108772
    170 H73        -1.7050   -1.2050    2.4850 hc        1 MOL      0.042931
    171 H74        -2.2090   -0.1310    1.2270 hc        1 MOL      0.042931
    172 H75        -1.9900   -2.2110   -0.4160 hc        1 MOL     -0.036972
    173 H76        -1.0020   -2.7830    0.9720 hc        1 MOL     -0.036972
    174 N15        -5.0110   -0.4010    3.0070 n         1 MOL      0.043821
    175 C58        -5.8120   -0.0100    4.0950 c3        1 MOL     -0.294878
    176 H77        -5.6140   -0.6620    4.9460 h1        1 MOL      0.087032
    177 H78        -5.5800    1.0200    4.3660 h1        1 MOL      0.087032
    178 H79        -6.8640   -0.0850    3.8190 h1        1 MOL      0.087032
    179 H80        -5.1370    0.0670    2.1300 hn        1 MOL      0.045612
    180 Ca1         2.3170    0.2700   -1.1130 Ca        1 MOL      1.779727
    181 O27         1.0880    0.0060   -3.3930 oh        1 MOL     -0.907924
    182 H81         1.6750   -0.3670   -4.0600 ho        1 MOL      0.412591
    183 H82         0.4670    0.5370   -3.9010 ho        1 MOL      0.412591
    184 O28         1.2010    2.7260   -2.0440 oh        1 MOL     -0.907924
    185 H83         0.6120    2.7380   -2.7920 ho        1 MOL      0.412591
    186 H84         2.0080    3.1170   -2.3670 ho        1 MOL      0.412591
@<TRIPOS>BOND
     1    1    2 1   
     2    1    4 1   
     3    1    5 1   
     4    1    6 1   
     5    2    3 2   
     6    2    7 1   
     7    7    8 1   
     8    7   15 1   
     9    8    9 1   
    10    8   11 1   
    11    8   16 1   
    12    9   10 2   
    13    9   19 1   
    14   11   12 1   
    15   11   17 1   
    16   11   18 1   
    17   12   13 1   
    18   12   14 1   
    19   19   20 1   
    20   19   27 1   
    21   20   21 1   
    22   20   23 1   
    23   20   28 1   
    24   21   22 2   
    25   21   38 1   
    26   23   24 1   
    27   23   25 1   
    28   23   29 1   
    29   24   26 1   
    30   24   30 1   
    31   24   31 1   
    32   25   32 1   
    33   25   33 1   
    34   25   34 1   
    35   26   35 1   
    36   26   36 1   
    37   26   37 1   
    38   38   39 1   
    39   38   46 1   
    40   39   40 1   
    41   39   42 1   
    42   39   47 1   
    43   40   41 2   
    44   40   50 1   
    45   42   43 1   
    46   42   48 1   
    47   42   49 1   
    48   43   44 1   
    49   43   45 1   
    50   50   51 1   
    51   50   54 1   
    52   51   52 1   
    53   51   55 1   
    54   51   56 1   
    55   52   53 2   
    56   52   57 1   
    57   57   58 1   
    58   57   65 1   
    59   58   59 1   
    60   58   61 1   
    61   58   66 1   
    62   59   60 2   
    63   59   69 1   
    64   61   62 1   
    65   61   67 1   
    66   61   68 1   
    67   62   63 1   
    68   62   64 1   
    69   69   70 1   
    70   69   73 1   
    71   70   71 1   
    72   70   74 1   
    73   70   75 1   
    74   71   72 2   
    75   71   76 1   
    76   76   77 1   
    77   76   85 1   
    78   77   78 1   
    79   77   80 1   
    80   77   86 1   
    81   78   79 2   
    82   78   93 1   
    83   80   81 1   
    84   80   87 1   
    85   80   88 1   
    86   81   82 1   
    87   81   89 1   
    88   81   90 1   
    89   82   83 1   
    90   82   84 2   
    91   83   91 1   
    92   83   92 1   
    93   93   94 1   
    94   93  100 1   
    95   94   95 1   
    96   94   97 1   
    97   94  101 1   
    98   95   96 2   
    99   95  109 1   
   100   97   98 1   
   101   97   99 1   
   102   97  102 1   
   103   98  103 1   
   104   98  104 1   
   105   98  105 1   
   106   99  106 1   
   107   99  107 1   
   108   99  108 1   
   109  109  110 1   
   110  109  117 1   
   111  110  111 1   
   112  110  113 1   
   113  110  118 1   
   114  111  112 2   
   115  111  123 1   
   116  113  114 1   
   117  113  119 1   
   118  113  120 1   
   119  114  115 1   
   120  114  116 2   
   121  115  121 1   
   122  115  122 1   
   123  123  124 1   
   124  123  135 1   
   125  124  125 1   
   126  124  127 1   
   127  124  136 1   
   128  125  126 2   
   129  125  144 1   
   130  127  128 1   
   131  127  137 1   
   132  127  138 1   
   133  128  129 ar  
   134  128  130 ar  
   135  129  131 ar  
   136  129  139 1   
   137  130  132 ar  
   138  130  140 1   
   139  131  133 ar  
   140  131  141 1   
   141  132  133 ar  
   142  132  142 1   
   143  133  134 1   
   144  134  143 1   
   145  144  145 1   
   146  144  153 1   
   147  145  146 1   
   148  145  148 1   
   149  145  154 1   
   150  146  147 2   
   151  146  159 1   
   152  148  149 1   
   153  148  155 1   
   154  148  156 1   
   155  149  150 1   
   156  149  157 1   
   157  149  158 1   
   158  150  151 1   
   159  150  152 1   
   160  159  160 1   
   161  159  168 1   
   162  160  161 1   
   163  160  163 1   
   164  160  169 1   
   165  161  162 2   
   166  161  174 1   
   167  163  164 1   
   168  163  170 1   
   169  163  171 1   
   170  164  165 1   
   171  164  172 1   
   172  164  173 1   
   173  165  166 1   
   174  165  167 1   
   175  174  175 1   
   176  174  179 1   
   177  175  176 1   
   178  175  177 1   
   179  175  178 1   
   180  181  182 1   
   181  181  183 1   
   182  184  185 1   
   183  184  186 1   
@<TRIPOS>SUBSTRUCTURE
     1 MOL         1 TEMP              0 ****  ****    0 ROOT
