@<TRIPOS>MOLECULE
MOL
  179   176     1     0     0
SMALL
resp


@<TRIPOS>ATOM
      1 C1         -0.7780    4.7500   -4.2640 c3        1 MOL     -0.367982
      2 C2         -0.3950    3.9520   -3.0210 c         1 MOL      0.660760
      3 O1         -1.0680    4.0410   -1.9820 o         1 MOL     -0.550451
      4 H1         -1.7900    4.4850   -4.5680 hc        1 MOL      0.089294
      5 H2         -0.7340    5.8160   -4.0410 hc        1 MOL      0.089294
      6 H3         -0.0840    4.5190   -5.0720 hc        1 MOL      0.089294
      7 N1          0.7060    3.2480   -3.0900 n         1 MOL     -0.617913
      8 C3          1.3790    2.7050   -1.8720 c3        1 MOL      0.165763
      9 C4          2.1920    3.8730   -1.2600 c         1 MOL      0.477657
     10 O2          3.4110    3.7540   -1.2490 o         1 MOL     -0.467214
     11 C5          2.2370    1.4700   -2.2300 c3        1 MOL      0.022763
     12 C6          3.2320    0.9220   -1.2480 c         1 MOL      0.487358
     13 O3          3.0160    0.8430   -0.0230 o         1 MOL     -0.630393
     14 O4          4.2480    0.3750   -1.6690 o         1 MOL     -0.630393
     15 H4          1.1140    3.2110   -4.0100 hn        1 MOL      0.339612
     16 H5          0.6790    2.3510   -1.1150 h1        1 MOL      0.079445
     17 H6          2.7630    1.6490   -3.1690 hc        1 MOL      0.002170
     18 H7          1.5900    0.6240   -2.4780 hc        1 MOL      0.002170
     19 N2          1.5270    4.8580   -0.6240 n         1 MOL     -0.446041
     20 C7          2.2480    6.0180   -0.1060 c3        1 MOL     -0.012833
     21 C8          2.9880    5.7200    1.1410 c         1 MOL      0.575683
     22 O5          3.6780    6.5780    1.6060 o         1 MOL     -0.569490
     23 C9          1.2620    7.2040    0.1670 c3        1 MOL     -0.204897
     24 C10         0.4120    7.6100   -1.0340 c3        1 MOL      0.361240
     25 C11        -0.5360    8.8040   -0.7060 c3        1 MOL     -0.004280
     26 C12        -1.2500    9.3940   -2.0010 c3        1 MOL     -0.218292
     27 N3         -0.3840    9.9800   -2.9880 n4        1 MOL     -0.156106
     28 H8          0.5160    4.8030   -0.6310 hn        1 MOL      0.327529
     29 H9          2.9770    6.4060   -0.8160 h1        1 MOL      0.102537
     30 H10         1.9210    8.0550    0.3190 hc        1 MOL      0.061585
     31 H11         0.6940    7.0050    1.0680 hc        1 MOL      0.061585
     32 H12        -0.2340    6.8200   -1.4080 hc        1 MOL     -0.103801
     33 H13         1.0890    7.8780   -1.8390 hc        1 MOL     -0.103801
     34 H14         0.0590    9.5560   -0.1930 hc        1 MOL      0.040411
     35 H15        -1.2780    8.4920    0.0350 hc        1 MOL      0.040411
     36 H16        -1.9040   10.1740   -1.6300 hx        1 MOL      0.152438
     37 H17        -1.7880    8.6120   -2.5500 hx        1 MOL      0.152438
     38 H18        -0.8640   10.5190   -3.6920 hn        1 MOL      0.279886
     39 H19         0.2910   10.5920   -2.5670 hn        1 MOL      0.279886
     40 H20         0.2070    9.3170   -3.4620 hn        1 MOL      0.279886
     41 N4          3.0630    4.4510    1.6580 n         1 MOL     -0.266676
     42 C13         3.9720    4.0370    2.7640 c3        1 MOL     -0.026576
     43 C14         5.2480    3.3010    2.1910 c         1 MOL      0.320025
     44 O6          6.2360    3.0390    2.8910 o         1 MOL     -0.528389
     45 C15         3.2370    3.1650    3.7630 c3        1 MOL     -0.092512
     46 C16         2.5010    1.9590    3.1920 c         1 MOL      0.669112
     47 O7          3.0110    0.8770    3.3270 o         1 MOL     -0.684908
     48 O8          1.4710    2.1360    2.5450 o         1 MOL     -0.684908
     49 H21         2.5870    3.6550    1.2440 hn        1 MOL      0.115355
     50 H22         4.2700    4.8930    3.3780 h1        1 MOL      0.109510
     51 H23         2.4690    3.7990    4.2230 hc        1 MOL      0.032301
     52 H24         3.8530    2.8310    4.5860 hc        1 MOL      0.032301
     53 N5          5.0980    2.8710    0.9630 n         1 MOL      0.205767
     54 C17         6.1510    2.3190    0.2090 c3        1 MOL     -0.271705
     55 C18         6.6350    0.9360    0.5140 c         1 MOL      0.603279
     56 O9          7.7970    0.6570    0.3560 o         1 MOL     -0.593124
     57 H25         4.2780    3.1960    0.4730 hn        1 MOL     -0.032076
     58 H26         6.9810    3.0290    0.2380 h1        1 MOL      0.099201
     59 H27         5.8330    2.2640   -0.8250 h1        1 MOL      0.099201
     60 N6          5.7870    0.1160    1.0580 n         1 MOL     -0.125614
     61 C19         6.0460   -1.2780    1.3640 c3        1 MOL     -0.237847
     62 C20         5.8520   -2.3610    0.2560 c         1 MOL      0.332190
     63 O10         5.9770   -3.5450    0.4620 o         1 MOL     -0.425280
     64 C21         5.2900   -1.6610    2.6960 c3        1 MOL     -0.094648
     65 C22         3.9830   -2.5030    2.5490 c         1 MOL      0.416201
     66 N7          3.8810   -3.7410    3.0210 n         1 MOL     -0.649700
     67 O11         3.0620   -2.0720    1.8830 o         1 MOL     -0.507638
     68 H28         4.7980    0.3570    1.0450 hn        1 MOL      0.035471
     69 H29         7.0620   -1.3850    1.7250 h1        1 MOL      0.172899
     70 H30         5.0190   -0.8210    3.3390 hc        1 MOL      0.091120
     71 H31         6.0030   -2.2220    3.2840 hc        1 MOL      0.091120
     72 H32         4.5410   -4.0050    3.7420 hn        1 MOL      0.341318
     73 H33         2.9730   -4.1460    2.8510 hn        1 MOL      0.341318
     74 N8          5.4590   -1.8480   -0.9300 n         1 MOL     -0.184914
     75 C23         5.4100   -2.6640   -2.1540 c3        1 MOL     -0.181465
     76 C24         4.1430   -3.3750   -2.4090 c         1 MOL      0.504861
     77 O12         4.0510   -4.0940   -3.4240 o         1 MOL     -0.558514
     78 H34         5.2450   -0.8680   -1.0350 hn        1 MOL      0.269013
     79 H35         6.2220   -3.3870   -2.0490 h1        1 MOL      0.118162
     80 H36         5.7330   -2.0990   -3.0310 h1        1 MOL      0.118162
     81 N9          3.1830   -3.2520   -1.4530 n         1 MOL     -0.228015
     82 C25         1.8230   -3.8430   -1.4660 c3        1 MOL      0.136540
     83 C26         0.7000   -2.8080   -1.1630 c         1 MOL      0.378481
     84 O13         0.9780   -1.8570   -0.4270 o         1 MOL     -0.562696
     85 C27         1.6610   -5.0670   -0.5020 c3        1 MOL      0.137321
     86 C28         2.6440   -6.1670   -0.7470 ca        1 MOL      0.237721
     87 C29         3.9240   -6.0310   -0.1920 ca        1 MOL     -0.444789
     88 C30         2.3160   -7.2650   -1.5220 ca        1 MOL     -0.444789
     89 C31         4.9780   -6.9610   -0.4270 ca        1 MOL      0.020215
     90 C32         3.3690   -8.1040   -1.8680 ca        1 MOL      0.020215
     91 C33         4.6570   -8.0360   -1.2870 ca        1 MOL      0.108096
     92 O14         5.6210   -8.8710   -1.7420 oh        1 MOL     -0.434045
     93 H37         3.3640   -2.6350   -0.6680 hn        1 MOL      0.267441
     94 H38         1.5800   -4.3020   -2.4260 h1        1 MOL      0.007580
     95 H39         0.7060   -5.5830   -0.6670 hc        1 MOL     -0.053530
     96 H40         1.7380   -4.7330    0.5270 hc        1 MOL     -0.053530
     97 H41         4.1130   -5.2150    0.4940 ha        1 MOL      0.181357
     98 H42         1.3230   -7.4240   -1.9070 ha        1 MOL      0.181357
     99 H43         5.9800   -6.8070   -0.0700 ha        1 MOL      0.082284
    100 H44         3.1350   -8.9710   -2.4870 ha        1 MOL      0.082284
    101 H45         5.3230   -9.4200   -2.4750 ho        1 MOL      0.342974
    102 N10        -0.4560   -2.9870   -1.8000 n         1 MOL     -0.530138
    103 C34        -1.7620   -2.2540   -1.6020 c3        1 MOL      0.078582
    104 C35        -2.9370   -3.1810   -1.1990 c         1 MOL      0.584203
    105 O15        -3.1740   -4.1430   -1.8690 o         1 MOL     -0.556058
    106 C36        -2.0620   -1.4090   -2.8650 c3        1 MOL     -0.021907
    107 C37        -1.0270   -0.4400   -3.3740 c3        1 MOL      0.193752
    108 C38        -3.4150   -0.6270   -2.7570 c3        1 MOL     -0.264462
    109 C39        -1.2880    0.2860   -4.7090 c3        1 MOL     -0.239789
    110 H46        -0.5270   -3.7860   -2.4160 hn        1 MOL      0.331553
    111 H47        -1.6750   -1.5050   -0.8140 h1        1 MOL      0.066959
    112 H48        -2.2110   -2.0860   -3.7030 hc        1 MOL      0.010328
    113 H49        -0.0750   -0.9580   -3.5010 hc        1 MOL      0.019982
    114 H50        -0.9120    0.3030   -2.5830 hc        1 MOL      0.019982
    115 H51        -3.3830    0.2270   -2.0930 hc        1 MOL      0.064667
    116 H52        -3.6610   -0.0870   -3.6760 hc        1 MOL      0.064667
    117 H53        -4.2720   -1.2390   -2.4670 hc        1 MOL      0.064667
    118 H54        -0.3300    0.6350   -5.0800 hc        1 MOL      0.050425
    119 H55        -1.5530   -0.4350   -5.4810 hc        1 MOL      0.050425
    120 H56        -2.1470    0.9590   -4.6700 hc        1 MOL      0.050425
    121 N11        -3.6010   -2.9110   -0.0910 n         1 MOL     -0.440583
    122 C40        -4.8620   -3.5740    0.2540 c3        1 MOL      0.163011
    123 C41        -6.0810   -2.7720   -0.2790 c         1 MOL      0.360772
    124 O16        -5.9750   -1.5650   -0.5790 o         1 MOL     -0.299035
    125 C42        -4.9700   -3.7100    1.7740 c3        1 MOL     -0.222299
    126 O17        -5.2290   -2.4160    2.3530 oh        1 MOL     -0.310142
    127 H57        -3.2290   -2.1170    0.4130 hn        1 MOL      0.333807
    128 H58        -4.9150   -4.5560   -0.2180 h1        1 MOL      0.061502
    129 H59        -4.0010   -4.0660    2.1200 h1        1 MOL      0.108228
    130 H60        -5.7310   -4.4700    1.9570 h1        1 MOL      0.108228
    131 H61        -4.8140   -2.4580    3.2160 ho        1 MOL      0.376025
    132 N12        -7.2700   -3.3030   -0.1230 n         1 MOL     -0.279965
    133 C43        -8.4330   -2.6210   -0.5040 c3        1 MOL      0.006933
    134 C44        -8.7350   -1.4590    0.4530 c         1 MOL      0.589767
    135 O18        -9.0750   -0.3720   -0.0400 o         1 MOL     -0.518512
    136 C45        -9.5480   -3.6470   -0.7120 c3        1 MOL     -0.444690
    137 H62        -7.4100   -4.2940    0.0280 hn        1 MOL      0.264418
    138 H63        -8.1880   -2.2010   -1.4770 h1        1 MOL      0.110403
    139 H64       -10.5040   -3.1280   -0.6770 hc        1 MOL      0.134301
    140 H65        -9.3970   -4.1640   -1.6610 hc        1 MOL      0.134301
    141 H66        -9.6430   -4.4860   -0.0240 hc        1 MOL      0.134301
    142 N13        -8.4280   -1.6440    1.7370 n         1 MOL     -0.524623
    143 C46        -8.2220   -0.5150    2.6760 c3        1 MOL      0.298157
    144 C47        -7.3010    0.6530    2.2590 c         1 MOL      0.298193
    145 O19        -7.6020    1.7900    2.5850 o         1 MOL     -0.520256
    146 C48        -7.7370   -1.0350    4.0620 c3        1 MOL     -0.367609
    147 H67        -8.0210   -2.5310    1.9890 hn        1 MOL      0.291060
    148 H68        -9.2000   -0.0500    2.7670 h1        1 MOL      0.050519
    149 H69        -8.5350   -1.5950    4.5520 hc        1 MOL      0.099941
    150 H70        -6.8650   -1.6610    3.9080 hc        1 MOL      0.099941
    151 H71        -7.4070   -0.1960    4.6830 hc        1 MOL      0.099941
    152 N14        -6.1660    0.3830    1.7110 n         1 MOL      0.157456
    153 C49        -5.3110    1.3910    1.0590 c3        1 MOL     -0.066319
    154 C50        -5.7140    1.9850   -0.2350 c         1 MOL      0.483322
    155 O20        -5.5480    3.1920   -0.4290 o         1 MOL     -0.573694
    156 C51        -3.9150    0.7410    0.8970 c3        1 MOL      0.209589
    157 C52        -2.8070    1.7520    1.0130 c3        1 MOL     -0.256518
    158 C53        -1.4530    1.0120    1.2120 c         1 MOL      0.800694
    159 O21        -0.5620    1.0100    0.3490 o         1 MOL     -0.812348
    160 O22        -1.2300    0.3260    2.2440 o         1 MOL     -0.812348
    161 H72        -6.0310   -0.5650    1.4040 hn        1 MOL     -0.430476
    162 H73        -5.2610    2.2360    1.7450 h1        1 MOL      0.086641
    163 H74        -3.8220    0.0750    0.0360 hc        1 MOL     -0.013080
    164 H75        -3.8360    0.1570    1.8180 hc        1 MOL     -0.013080
    165 H76        -3.0330    2.3070    1.9220 hc        1 MOL      0.060733
    166 H77        -2.7990    2.4290    0.1620 hc        1 MOL      0.060733
    167 N15        -6.3910    1.2220   -1.0630 n         1 MOL     -0.058746
    168 C54        -6.7900    1.7510   -2.3680 c3        1 MOL     -0.223688
    169 H78        -7.8160    1.4520   -2.5830 h1        1 MOL      0.087860
    170 H79        -6.7250    2.8400   -2.3550 h1        1 MOL      0.087860
    171 H80        -6.1270    1.3570   -3.1390 h1        1 MOL      0.087860
    172 H81        -6.4800    0.2410   -0.8390 hn        1 MOL      0.107632
    173 Ca1         1.3530   -0.1740    1.5570 Ca        1 MOL      1.736233
    174 O23        -0.2530   -2.9600    2.1810 oh        1 MOL     -0.701866
    175 H82         0.5560   -3.4310    2.3690 ho        1 MOL      0.348012
    176 H83        -0.9240   -3.6410    2.1360 ho        1 MOL      0.348012
    177 O24         0.9810   -1.1940    4.1700 oh        1 MOL     -0.701866
    178 H84         0.3900   -1.9370    4.0820 ho        1 MOL      0.348012
    179 H85         1.4720   -1.3730    4.9820 ho        1 MOL      0.348012
@<TRIPOS>BOND
     1    1    2 1   
     2    1    4 1   
     3    1    5 1   
     4    1    6 1   
     5    2    3 2   
     6    2    7 1   
     7    7    8 1   
     8    7   15 1   
     9    8    9 1   
    10    8   11 1   
    11    8   16 1   
    12    9   10 2   
    13    9   19 1   
    14   11   12 1   
    15   11   17 1   
    16   11   18 1   
    17   12   13 1   
    18   12   14 1   
    19   19   20 1   
    20   19   28 1   
    21   20   21 1   
    22   20   23 1   
    23   20   29 1   
    24   21   22 2   
    25   21   41 1   
    26   23   24 1   
    27   23   30 1   
    28   23   31 1   
    29   24   25 1   
    30   24   32 1   
    31   24   33 1   
    32   25   26 1   
    33   25   34 1   
    34   25   35 1   
    35   26   27 1   
    36   26   36 1   
    37   26   37 1   
    38   27   38 1   
    39   27   39 1   
    40   27   40 1   
    41   41   42 1   
    42   41   49 1   
    43   42   43 1   
    44   42   45 1   
    45   42   50 1   
    46   43   44 2   
    47   43   53 1   
    48   45   46 1   
    49   45   51 1   
    50   45   52 1   
    51   46   47 1   
    52   46   48 1   
    53   53   54 1   
    54   53   57 1   
    55   54   55 1   
    56   54   58 1   
    57   54   59 1   
    58   55   56 2   
    59   55   60 1   
    60   60   61 1   
    61   60   68 1   
    62   61   62 1   
    63   61   64 1   
    64   61   69 1   
    65   62   63 2   
    66   62   74 1   
    67   64   65 1   
    68   64   70 1   
    69   64   71 1   
    70   65   66 1   
    71   65   67 2   
    72   66   72 1   
    73   66   73 1   
    74   74   75 1   
    75   74   78 1   
    76   75   76 1   
    77   75   79 1   
    78   75   80 1   
    79   76   77 2   
    80   76   81 1   
    81   81   82 1   
    82   81   93 1   
    83   82   83 1   
    84   82   85 1   
    85   82   94 1   
    86   83   84 2   
    87   83  102 1   
    88   85   86 1   
    89   85   95 1   
    90   85   96 1   
    91   86   87 ar  
    92   86   88 ar  
    93   87   89 ar  
    94   87   97 1   
    95   88   90 ar  
    96   88   98 1   
    97   89   91 ar  
    98   89   99 1   
    99   90   91 ar  
   100   90  100 1   
   101   91   92 1   
   102   92  101 1   
   103  102  103 1   
   104  102  110 1   
   105  103  104 1   
   106  103  106 1   
   107  103  111 1   
   108  104  105 2   
   109  104  121 1   
   110  106  107 1   
   111  106  108 1   
   112  106  112 1   
   113  107  109 1   
   114  107  113 1   
   115  107  114 1   
   116  108  115 1   
   117  108  116 1   
   118  108  117 1   
   119  109  118 1   
   120  109  119 1   
   121  109  120 1   
   122  121  122 1   
   123  121  127 1   
   124  122  123 1   
   125  122  125 1   
   126  122  128 1   
   127  123  124 2   
   128  123  132 1   
   129  125  126 1   
   130  125  129 1   
   131  125  130 1   
   132  126  131 1   
   133  132  133 1   
   134  132  137 1   
   135  133  134 1   
   136  133  136 1   
   137  133  138 1   
   138  134  135 2   
   139  134  142 1   
   140  136  139 1   
   141  136  140 1   
   142  136  141 1   
   143  142  143 1   
   144  142  147 1   
   145  143  144 1   
   146  143  146 1   
   147  143  148 1   
   148  144  145 2   
   149  144  152 1   
   150  146  149 1   
   151  146  150 1   
   152  146  151 1   
   153  152  153 1   
   154  152  161 1   
   155  153  154 1   
   156  153  156 1   
   157  153  162 1   
   158  154  155 2   
   159  154  167 1   
   160  156  157 1   
   161  156  163 1   
   162  156  164 1   
   163  157  158 1   
   164  157  165 1   
   165  157  166 1   
   166  158  159 1   
   167  158  160 1   
   168  167  168 1   
   169  167  172 1   
   170  168  169 1   
   171  168  170 1   
   172  168  171 1   
   173  174  175 1   
   174  174  176 1   
   175  177  178 1   
   176  177  179 1   
@<TRIPOS>SUBSTRUCTURE
     1 MOL         1 TEMP              0 ****  ****    0 ROOT
