@<TRIPOS>MOLECULE
MOL
  176   174     1     0     0
SMALL
resp


@<TRIPOS>ATOM
      1 C1          2.1000   -4.4130    6.4380 c3        1 MOL     -0.327525
      2 C2          1.5150   -3.9030    5.0780 c         1 MOL      0.692768
      3 O1          0.3970   -4.2940    4.6950 o         1 MOL     -0.590021
      4 H1          3.0100   -4.9840    6.2510 hc        1 MOL      0.089243
      5 H2          2.3310   -3.5610    7.0770 hc        1 MOL      0.089243
      6 H3          1.3670   -5.0500    6.9330 hc        1 MOL      0.089243
      7 N1          2.2360   -3.1420    4.2810 n         1 MOL     -0.556376
      8 C3          1.9290   -2.7350    2.9300 c3        1 MOL      0.010458
      9 C4          1.9050   -3.9170    2.0130 c         1 MOL      0.597027
     10 O2          2.6640   -4.8880    2.2140 o         1 MOL     -0.583431
     11 C5          2.9270   -1.6970    2.5090 c3        1 MOL     -0.113892
     12 C6          2.8460   -1.1120    1.0660 c         1 MOL      0.709107
     13 O3          2.8260   -1.9030    0.0640 o         1 MOL     -0.725386
     14 O4          2.8040    0.1150    0.7800 o         1 MOL     -0.725386
     15 H4          3.2250   -3.0570    4.4520 hn        1 MOL      0.297260
     16 H5          0.9720   -2.2100    2.8230 h1        1 MOL      0.126930
     17 H6          3.9510   -2.0300    2.6570 hc        1 MOL      0.040077
     18 H7          2.7950   -0.8760    3.2060 hc        1 MOL      0.040077
     19 N2          0.9760   -3.9660    1.1120 n         1 MOL     -0.242328
     20 C7          0.6330   -5.2440    0.3620 c3        1 MOL     -0.015576
     21 C8          1.5810   -5.6530   -0.7780 c         1 MOL      0.574449
     22 O5          1.5070   -6.7610   -1.3190 o         1 MOL     -0.567502
     23 C9         -0.8500   -4.9960   -0.1440 c3        1 MOL      0.221883
     24 C10        -1.7120   -6.0470   -0.7370 c3        1 MOL     -0.106361
     25 C11        -1.6040   -7.3610    0.1030 c3        1 MOL      0.172452
     26 C12        -2.8620   -8.0840   -0.2370 c3        1 MOL      0.025755
     27 N3         -2.9480   -9.3480    0.5490 n4        1 MOL     -0.389776
     28 H8          0.3380   -3.1790    1.0600 hn        1 MOL      0.126258
     29 H9          0.6100   -6.0520    1.0900 h1        1 MOL      0.034314
     30 H10        -0.8540   -4.1190   -0.7810 hc        1 MOL     -0.028104
     31 H11        -1.3530   -4.6770    0.7740 hc        1 MOL     -0.028104
     32 H12        -1.3950   -6.2160   -1.7660 hc        1 MOL      0.041262
     33 H13        -2.7440   -5.6970   -0.7140 hc        1 MOL      0.041262
     34 H14        -1.5800   -7.1950    1.1810 hc        1 MOL     -0.026897
     35 H15        -0.6920   -7.9130   -0.1530 hc        1 MOL     -0.026897
     36 H16        -2.7510   -8.2010   -1.3120 hx        1 MOL      0.062241
     37 H17        -3.5990   -7.3320    0.0290 hx        1 MOL      0.062241
     38 H18        -3.0110   -9.1300    1.5310 hn        1 MOL      0.334106
     39 H19        -3.8080   -9.8530    0.4130 hn        1 MOL      0.334106
     40 H20        -2.1760   -9.9680    0.3520 hn        1 MOL      0.334106
     41 N4          2.5420   -4.7570   -0.9740 n         1 MOL     -0.445952
     42 C13         3.3590   -4.7890   -2.1970 c3        1 MOL      0.121576
     43 C14         4.7160   -4.0640   -2.0480 c         1 MOL      0.414622
     44 O6          5.5170   -4.3390   -2.9110 o         1 MOL     -0.526908
     45 C15         2.6200   -4.1510   -3.3600 c3        1 MOL     -0.271508
     46 C16         2.2120   -2.7330   -3.1150 c         1 MOL      0.786938
     47 O7          0.9740   -2.5280   -2.9380 o         1 MOL     -0.728898
     48 O8          3.0420   -1.8330   -3.0410 o         1 MOL     -0.728898
     49 H21         2.5630   -3.9630   -0.3610 hn        1 MOL      0.136301
     50 H22         3.6470   -5.7880   -2.5430 h1        1 MOL      0.098182
     51 H23         1.7840   -4.6980   -3.7850 hc        1 MOL      0.067856
     52 H24         3.4260   -4.0120   -4.0840 hc        1 MOL      0.067856
     53 N5          5.0330   -3.3710   -0.9410 n         1 MOL     -0.185499
     54 C17         6.4170   -2.9610   -0.6040 c3        1 MOL     -0.344954
     55 C18         6.7190   -1.5050   -0.9230 c         1 MOL      0.557589
     56 O9          7.7390   -1.0360   -0.4290 o         1 MOL     -0.576506
     57 H25         4.3980   -3.3590   -0.1600 hn        1 MOL      0.251711
     58 H26         7.0380   -3.5690   -1.2600 h1        1 MOL      0.159596
     59 H27         6.5000   -3.1310    0.4750 h1        1 MOL      0.159596
     60 N6          5.9060   -0.6900   -1.5820 n         1 MOL     -0.165600
     61 C19         6.2320    0.6420   -1.9830 c3        1 MOL     -0.249269
     62 C20         6.2970    1.6290   -0.8680 c         1 MOL      0.511732
     63 O10         6.6590    2.7870   -1.1250 o         1 MOL     -0.480067
     64 C21         5.2710    1.1280   -3.1370 c3        1 MOL     -0.054103
     65 C22         4.1160    1.9810   -2.7130 c         1 MOL      0.496624
     66 N7          3.8730    3.1360   -3.2670 n         1 MOL     -0.551979
     67 O11         3.3090    1.5720   -1.9110 o         1 MOL     -0.632158
     68 H28         4.9770   -1.0240   -1.7950 hn        1 MOL      0.227767
     69 H29         7.2370    0.4690   -2.3670 h1        1 MOL      0.163783
     70 H30         4.8220    0.2990   -3.6760 hc        1 MOL      0.066560
     71 H31         5.7960    1.7420   -3.8690 hc        1 MOL      0.066560
     72 H32         4.4650    3.4210   -4.0270 hn        1 MOL      0.300181
     73 H33         2.9370    3.5040   -3.1740 hn        1 MOL      0.300181
     74 N8          5.7720    1.3340    0.3910 n         1 MOL     -0.312588
     75 C23         5.6750    2.3120    1.5700 c3        1 MOL     -0.112376
     76 C24         4.5040    3.2680    1.5040 c         1 MOL      0.457668
     77 O12         4.6170    4.3500    2.0200 o         1 MOL     -0.508238
     78 H34         5.2410    0.4790    0.4760 hn        1 MOL      0.255283
     79 H35         6.6070    2.8240    1.7920 h1        1 MOL      0.095680
     80 H36         5.4520    1.7280    2.4710 h1        1 MOL      0.095680
     81 N9          3.3830    2.9520    0.8460 n         1 MOL      0.049343
     82 C25         2.1890    3.7510    1.0560 c3        1 MOL     -0.100858
     83 C26         0.9280    2.8650    0.8380 c         1 MOL      0.392196
     84 O13         0.7980    1.9810   -0.0670 o         1 MOL     -0.561838
     85 C27         2.0680    4.8930   -0.0100 c3        1 MOL     -0.033383
     86 C28         2.9880    6.1190    0.2640 ca        1 MOL     -0.099450
     87 C29         4.1060    6.4340   -0.5590 ca        1 MOL     -0.043940
     88 C30         2.6150    7.0070    1.3020 ca        1 MOL     -0.043940
     89 C31         4.8140    7.6630   -0.3420 ca        1 MOL     -0.368461
     90 C32         3.3610    8.1890    1.5630 ca        1 MOL     -0.368461
     91 C33         4.4860    8.5180    0.7480 ca        1 MOL      0.450335
     92 O14         5.2060    9.6450    0.9510 oh        1 MOL     -0.501045
     93 H37         3.3530    2.0260    0.4190 hn        1 MOL      0.035538
     94 H38         2.1620    4.2270    2.0320 h1        1 MOL      0.069993
     95 H39         1.0610    5.2820   -0.1170 hc        1 MOL      0.044548
     96 H40         2.2800    4.4950   -1.0010 hc        1 MOL      0.044548
     97 H41         4.4510    5.6880   -1.2530 ha        1 MOL      0.112137
     98 H42         1.7810    6.7850    1.9440 ha        1 MOL      0.112137
     99 H43         5.6230    7.8440   -1.0420 ha        1 MOL      0.167514
    100 H44         3.1310    8.8090    2.4140 ha        1 MOL      0.167514
    101 H45         4.9610   10.1100    1.7550 ho        1 MOL      0.359248
    102 N10        -0.1480    3.1700    1.4970 n         1 MOL     -0.252584
    103 C34        -1.4750    2.4300    1.4800 c3        1 MOL      0.001749
    104 C35        -2.5990    3.3830    1.0210 c         1 MOL      0.457946
    105 O15        -3.0370    4.1840    1.8230 o         1 MOL     -0.514816
    106 C36        -1.7380    1.7780    2.9080 c3        1 MOL      0.071805
    107 C37        -0.4510    1.0330    3.3730 c3        1 MOL      0.210734
    108 C38        -2.9100    0.7620    2.7910 c3        1 MOL     -0.038387
    109 C39        -0.5840    0.3360    4.6950 c3        1 MOL     -0.287180
    110 H46         0.0610    3.8440    2.2210 hn        1 MOL      0.246958
    111 H47        -1.4060    1.6380    0.7410 h1        1 MOL     -0.019463
    112 H48        -1.9080    2.5540    3.6490 hc        1 MOL     -0.000579
    113 H49         0.4190    1.6860    3.4540 hc        1 MOL     -0.044534
    114 H50        -0.2810    0.2850    2.5990 hc        1 MOL     -0.044534
    115 H51        -3.8350    1.2670    2.4980 hc        1 MOL      0.001489
    116 H52        -2.7130   -0.0240    2.0550 hc        1 MOL      0.001489
    117 H53        -3.1000    0.2890    3.7490 hc        1 MOL      0.001489
    118 H54        -1.1070   -0.5670    4.3730 hc        1 MOL      0.063902
    119 H55         0.3270    0.0420    5.2320 hc        1 MOL      0.063902
    120 H56        -1.2770    0.8740    5.3440 hc        1 MOL      0.063902
    121 N11        -3.0570    3.2040   -0.2020 n         1 MOL     -0.353305
    122 C40        -4.3690    3.7970   -0.5680 c3        1 MOL      0.063375
    123 C41        -5.6040    3.1800    0.0730 c         1 MOL      0.306597
    124 O16        -5.4600    2.1230    0.7180 o         1 MOL     -0.260854
    125 C42        -4.5640    3.7900   -2.0600 c3        1 MOL     -0.069154
    126 O17        -5.3100    2.6920   -2.4450 oh        1 MOL     -0.353939
    127 H57        -2.6020    2.5460   -0.8180 hn        1 MOL      0.275494
    128 H58        -4.3250    4.8480   -0.3060 h1        1 MOL      0.078194
    129 H59        -3.6420    3.7880   -2.6520 h1        1 MOL      0.067439
    130 H60        -5.1410    4.6590   -2.3670 h1        1 MOL      0.067439
    131 H61        -5.5330    2.7370   -3.3750 ho        1 MOL      0.352488
    132 N12        -6.7520    3.8420    0.0100 n         1 MOL     -0.342217
    133 C43        -7.9810    3.2730    0.4500 c3        1 MOL      0.054275
    134 C44        -8.3950    2.0660   -0.4410 c         1 MOL      0.423779
    135 O18        -9.1120    1.1660    0.0280 o         1 MOL     -0.501653
    136 C45        -9.0780    4.3350    0.4280 c3        1 MOL     -0.158315
    137 H62        -6.7640    4.7940   -0.3350 hn        1 MOL      0.282910
    138 H63        -7.7900    2.9550    1.4770 h1        1 MOL      0.090136
    139 H64        -8.8510    5.2610    0.9690 hc        1 MOL      0.058600
    140 H65        -9.2110    4.6530   -0.6000 hc        1 MOL      0.058600
    141 H66       -10.0260    3.9460    0.8000 hc        1 MOL      0.058600
    142 N13        -7.9760    2.0110   -1.6790 n         1 MOL     -0.349105
    143 C46        -8.2100    0.7420   -2.3780 c3        1 MOL      0.195832
    144 C47        -7.3880   -0.4240   -1.7810 c         1 MOL      0.312304
    145 O19        -7.9160   -1.5280   -1.6540 o         1 MOL     -0.532545
    146 C48        -7.7470    0.8140   -3.9060 c3        1 MOL     -0.322115
    147 H67        -7.3890    2.7420   -2.0540 hn        1 MOL      0.211377
    148 H68        -9.2470    0.4230   -2.4170 h1        1 MOL      0.089335
    149 H69        -8.4460    1.4890   -4.4090 hc        1 MOL      0.087522
    150 H70        -6.7430    1.2210   -4.0170 hc        1 MOL      0.087522
    151 H71        -7.6230   -0.1810   -4.3270 hc        1 MOL      0.087522
    152 N14        -6.1510   -0.3380   -1.3740 n         1 MOL     -0.002828
    153 C49        -5.2180   -1.3680   -0.8020 c3        1 MOL     -0.030238
    154 C50        -5.5590   -1.6680    0.6720 c         1 MOL      0.430821
    155 O20        -5.5280   -2.8500    1.0390 o         1 MOL     -0.556084
    156 C51        -3.7830   -0.8400   -0.8650 c3        1 MOL      0.027013
    157 C52        -2.6680   -1.7350   -0.3500 c3        1 MOL     -0.066296
    158 C53        -1.3350   -1.2130   -0.6560 c         1 MOL      0.736528
    159 O21        -1.0960   -0.6400   -1.7560 o         1 MOL     -0.691159
    160 O22        -0.4030   -1.4350    0.1430 o         1 MOL     -0.691159
    161 H72        -5.7040    0.5690   -1.4980 hn        1 MOL     -0.061756
    162 H73        -5.3110   -2.3020   -1.3550 h1        1 MOL      0.082077
    163 H74        -3.7580    0.0750   -0.2820 hc        1 MOL      0.010435
    164 H75        -3.5330   -0.5320   -1.8820 hc        1 MOL      0.010435
    165 H76        -2.7340   -2.6810   -0.8970 hc        1 MOL      0.006909
    166 H77        -2.8730   -1.8420    0.7120 hc        1 MOL      0.006909
    167 N15        -5.9910   -0.6680    1.4720 n         1 MOL     -0.037654
    168 C54        -6.5780   -0.8200    2.7770 c3        1 MOL     -0.138312
    169 H78        -7.5300   -0.2900    2.8110 h1        1 MOL      0.065989
    170 H79        -6.7450   -1.8780    2.9800 h1        1 MOL      0.065989
    171 H80        -5.9060   -0.4070    3.5280 h1        1 MOL      0.065989
    172 H81        -6.0500    0.2600    1.0840 hn        1 MOL      0.064649
    173 Ca1         1.3590   -0.2000   -1.4310 Ca        1 MOL      1.694535
    174 O23         0.7000    1.1210   -3.6360 oh        1 MOL     -0.846426
    175 H82         0.9260    2.0360   -3.4840 ho        1 MOL      0.422103
    176 H83         0.6090    1.0440   -4.5850 ho        1 MOL      0.422103
@<TRIPOS>BOND
     1    1    2 1   
     2    1    4 1   
     3    1    5 1   
     4    1    6 1   
     5    2    3 2   
     6    2    7 1   
     7    7    8 1   
     8    7   15 1   
     9    8    9 1   
    10    8   11 1   
    11    8   16 1   
    12    9   10 2   
    13    9   19 1   
    14   11   12 1   
    15   11   17 1   
    16   11   18 1   
    17   12   13 1   
    18   12   14 1   
    19   19   20 1   
    20   19   28 1   
    21   20   21 1   
    22   20   23 1   
    23   20   29 1   
    24   21   22 2   
    25   21   41 1   
    26   23   24 1   
    27   23   30 1   
    28   23   31 1   
    29   24   25 1   
    30   24   32 1   
    31   24   33 1   
    32   25   26 1   
    33   25   34 1   
    34   25   35 1   
    35   26   27 1   
    36   26   36 1   
    37   26   37 1   
    38   27   38 1   
    39   27   39 1   
    40   27   40 1   
    41   41   42 1   
    42   41   49 1   
    43   42   43 1   
    44   42   45 1   
    45   42   50 1   
    46   43   44 2   
    47   43   53 1   
    48   45   46 1   
    49   45   51 1   
    50   45   52 1   
    51   46   47 1   
    52   46   48 1   
    53   53   54 1   
    54   53   57 1   
    55   54   55 1   
    56   54   58 1   
    57   54   59 1   
    58   55   56 2   
    59   55   60 1   
    60   60   61 1   
    61   60   68 1   
    62   61   62 1   
    63   61   64 1   
    64   61   69 1   
    65   62   63 2   
    66   62   74 1   
    67   64   65 1   
    68   64   70 1   
    69   64   71 1   
    70   65   66 1   
    71   65   67 2   
    72   66   72 1   
    73   66   73 1   
    74   74   75 1   
    75   74   78 1   
    76   75   76 1   
    77   75   79 1   
    78   75   80 1   
    79   76   77 2   
    80   76   81 1   
    81   81   82 1   
    82   81   93 1   
    83   82   83 1   
    84   82   85 1   
    85   82   94 1   
    86   83   84 2   
    87   83  102 1   
    88   85   86 1   
    89   85   95 1   
    90   85   96 1   
    91   86   87 ar  
    92   86   88 ar  
    93   87   89 ar  
    94   87   97 1   
    95   88   90 ar  
    96   88   98 1   
    97   89   91 ar  
    98   89   99 1   
    99   90   91 ar  
   100   90  100 1   
   101   91   92 1   
   102   92  101 1   
   103  102  103 1   
   104  102  110 1   
   105  103  104 1   
   106  103  106 1   
   107  103  111 1   
   108  104  105 2   
   109  104  121 1   
   110  106  107 1   
   111  106  108 1   
   112  106  112 1   
   113  107  109 1   
   114  107  113 1   
   115  107  114 1   
   116  108  115 1   
   117  108  116 1   
   118  108  117 1   
   119  109  118 1   
   120  109  119 1   
   121  109  120 1   
   122  121  122 1   
   123  121  127 1   
   124  122  123 1   
   125  122  125 1   
   126  122  128 1   
   127  123  124 2   
   128  123  132 1   
   129  125  126 1   
   130  125  129 1   
   131  125  130 1   
   132  126  131 1   
   133  132  133 1   
   134  132  137 1   
   135  133  134 1   
   136  133  136 1   
   137  133  138 1   
   138  134  135 2   
   139  134  142 1   
   140  136  139 1   
   141  136  140 1   
   142  136  141 1   
   143  142  143 1   
   144  142  147 1   
   145  143  144 1   
   146  143  146 1   
   147  143  148 1   
   148  144  145 2   
   149  144  152 1   
   150  146  149 1   
   151  146  150 1   
   152  146  151 1   
   153  152  153 1   
   154  152  161 1   
   155  153  154 1   
   156  153  156 1   
   157  153  162 1   
   158  154  155 2   
   159  154  167 1   
   160  156  157 1   
   161  156  163 1   
   162  156  164 1   
   163  157  158 1   
   164  157  165 1   
   165  157  166 1   
   166  158  159 1   
   167  158  160 1   
   168  167  168 1   
   169  167  172 1   
   170  168  169 1   
   171  168  170 1   
   172  168  171 1   
   173  174  175 1   
   174  174  176 1   
@<TRIPOS>SUBSTRUCTURE
     1 MOL         1 TEMP              0 ****  ****    0 ROOT
