@<TRIPOS>MOLECULE
MOL
  175   173     1     0     0
SMALL
resp


@<TRIPOS>ATOM
      1 C1         -0.5580   -4.3490    5.0020 c3        1 MOL     -0.256177
      2 C2          0.1830   -4.1780    3.7370 c         1 MOL      0.723235
      3 O1         -0.4180   -4.3230    2.6480 o         1 MOL     -0.555046
      4 H1         -0.3550   -5.3400    5.4090 hc        1 MOL      0.056813
      5 H2         -0.2380   -3.5920    5.7170 hc        1 MOL      0.056813
      6 H3         -1.6260   -4.2450    4.8140 hc        1 MOL      0.056813
      7 N1          1.4890   -3.9260    3.8100 n         1 MOL     -0.661857
      8 C3          2.2530   -3.5110    2.6440 c3        1 MOL      0.184321
      9 C4          2.5750   -4.6790    1.7710 c         1 MOL      0.713174
     10 O2          2.8610   -5.7520    2.2030 o         1 MOL     -0.573993
     11 C5          3.5680   -2.8840    3.0990 c3        1 MOL     -0.640562
     12 C6          4.4470   -2.4550    1.9430 c         1 MOL      0.934667
     13 O3          5.6350   -2.5020    2.0610 o         1 MOL     -0.680782
     14 O4          3.8830   -2.0120    0.9330 o         1 MOL     -0.680782
     15 H4          2.0120   -3.9940    4.6720 hn        1 MOL      0.337981
     16 H5          1.6390   -2.7810    2.1250 h1        1 MOL      0.129126
     17 H6          4.0810   -3.6580    3.6710 hc        1 MOL      0.137250
     18 H7          3.2650   -1.9810    3.6250 hc        1 MOL      0.137250
     19 N2          2.4490   -4.3720    0.4270 n         1 MOL     -0.739853
     20 C7          2.6780   -5.2720   -0.6450 c3        1 MOL      0.319924
     21 C8          3.4680   -4.8210   -1.9330 c         1 MOL      0.430929
     22 O5          3.4440   -5.4000   -2.9880 o         1 MOL     -0.544126
     23 C9          1.2940   -5.7480   -1.1030 c3        1 MOL     -0.180183
     24 H8          2.3670   -3.3890    0.2340 hn        1 MOL      0.427861
     25 H9          3.1880   -6.1390   -0.2330 h1        1 MOL      0.002265
     26 H10         0.6660   -6.0390   -0.2570 hc        1 MOL      0.038993
     27 H11         0.6570   -5.0750   -1.6650 hc        1 MOL      0.038993
     28 H12         1.4280   -6.6970   -1.6160 hc        1 MOL      0.038993
     29 N3          4.2220   -3.7200   -1.7860 n         1 MOL     -0.293387
     30 C10         5.0430   -3.2540   -2.8710 c3        1 MOL      0.112019
     31 C11         6.3370   -2.5760   -2.3330 c         1 MOL      0.256999
     32 O6          7.3140   -2.5060   -3.1650 o         1 MOL     -0.541399
     33 C12         4.2970   -2.2830   -3.7290 c3        1 MOL     -0.093862
     34 C13         3.4550   -1.3620   -2.8890 c         1 MOL      0.624642
     35 O7          2.1870   -1.3020   -3.0110 o         1 MOL     -0.681776
     36 O8          3.9490   -0.7650   -1.9080 o         1 MOL     -0.681776
     37 H13         4.1080   -3.2070   -0.9260 hn        1 MOL      0.096731
     38 H14         5.3520   -4.0680   -3.5140 h1        1 MOL      0.079738
     39 H15         3.5460   -2.7600   -4.3580 hc        1 MOL      0.033434
     40 H16         4.8840   -1.6860   -4.4170 hc        1 MOL      0.033434
     41 N4          6.4320   -2.0730   -1.0680 n         1 MOL     -0.026002
     42 C14         7.5130   -1.3080   -0.5350 c3        1 MOL     -0.329169
     43 C15         7.4890    0.2350   -0.9200 c         1 MOL      0.572880
     44 O9          8.4450    0.8750   -0.6950 o         1 MOL     -0.590410
     45 H17         5.7110   -2.2840   -0.3980 hn        1 MOL      0.111971
     46 H18         8.4480   -1.7700   -0.8570 h1        1 MOL      0.135180
     47 H19         7.4150   -1.4690    0.5460 h1        1 MOL      0.135180
     48 N5          6.3750    0.8030   -1.4690 n         1 MOL     -0.286187
     49 C16         6.3340    2.1740   -2.0230 c3        1 MOL     -0.067133
     50 C17         6.2670    3.2340   -0.8880 c         1 MOL      0.484140
     51 O10         6.4000    4.4150   -1.1660 o         1 MOL     -0.563563
     52 C18         5.1530    2.2520   -2.9860 c3        1 MOL      0.109938
     53 C19         3.7310    2.3750   -2.4200 c         1 MOL      0.491479
     54 N6          2.8150    2.7190   -3.2430 n         1 MOL     -0.635911
     55 O11         3.4510    2.2570   -1.2330 o         1 MOL     -0.566708
     56 H20         5.6170    0.1990   -1.7420 hn        1 MOL      0.249905
     57 H21         7.2500    2.3800   -2.5740 h1        1 MOL      0.084545
     58 H22         5.2340    1.4140   -3.6760 hc        1 MOL     -0.012789
     59 H23         5.3620    3.0970   -3.6510 hc        1 MOL     -0.012789
     60 H24         2.9530    2.8950   -4.2270 hn        1 MOL      0.329460
     61 H25         1.8450    2.5810   -2.9950 hn        1 MOL      0.329460
     62 N7          6.1780    2.8300    0.3310 n         1 MOL     -0.133023
     63 C20         6.3000    3.7730    1.5030 c3        1 MOL     -0.278247
     64 C21         4.9160    4.4610    1.8820 c         1 MOL      0.599012
     65 O12         4.8480    5.3730    2.6880 o         1 MOL     -0.586171
     66 H26         6.2580    1.8430    0.5520 hn        1 MOL      0.212431
     67 H27         6.9920    4.5480    1.1760 h1        1 MOL      0.121178
     68 H28         6.8070    3.3120    2.3500 h1        1 MOL      0.121178
     69 N8          3.8350    4.0240    1.2850 n         1 MOL     -0.350351
     70 C22         2.5190    4.5670    1.4110 c3        1 MOL     -0.100781
     71 C23         1.4350    3.4870    1.4080 c         1 MOL      0.641665
     72 O13         1.4220    2.5070    0.6960 o         1 MOL     -0.632182
     73 C24         2.1660    5.5320    0.2790 c3        1 MOL      0.439552
     74 C25         2.8180    6.9170    0.4650 c3        1 MOL     -0.537079
     75 O14         2.6510    5.0840   -0.9480 oh        1 MOL     -0.567030
     76 H29         4.0140    3.3530    0.5480 hn        1 MOL      0.228186
     77 H30         2.3930    5.1570    2.3210 h1        1 MOL      0.093344
     78 H31         1.0820    5.5790    0.1470 h1        1 MOL      0.002589
     79 H32         2.6100    4.1320   -1.0530 ho        1 MOL      0.342572
     80 H33         2.5680    7.2310    1.4720 hc        1 MOL      0.136695
     81 H34         3.8640    6.9140    0.1860 hc        1 MOL      0.136695
     82 H35         2.2520    7.5990   -0.1780 hc        1 MOL      0.136695
     83 N9          0.3790    3.6680    2.1830 n         1 MOL     -0.572672
     84 C26        -0.8710    2.8750    2.1200 c3        1 MOL      0.011680
     85 C27        -1.6260    3.1430    0.8290 c         1 MOL      0.602478
     86 O15        -1.8930    4.2840    0.5130 o         1 MOL     -0.581942
     87 C28        -1.6720    3.0330    3.5010 c3        1 MOL      0.069280
     88 C29        -1.1140    2.0510    4.5390 c3        1 MOL      0.050175
     89 C30        -3.1470    2.7080    3.2670 c3        1 MOL     -0.156284
     90 C31        -1.8740    2.0720    5.9150 c3        1 MOL     -0.238773
     91 H36         0.2770    4.3710    2.9000 hn        1 MOL      0.282328
     92 H37        -0.6700    1.8060    2.0620 h1        1 MOL      0.035017
     93 H38        -1.6030    4.0590    3.8660 hc        1 MOL      0.015577
     94 H39        -0.1010    2.4010    4.7660 hc        1 MOL      0.014500
     95 H40        -1.0520    1.0270    4.1690 hc        1 MOL      0.014500
     96 H41        -3.8310    2.8180    4.1100 hc        1 MOL      0.025437
     97 H42        -3.6580    3.3630    2.5620 hc        1 MOL      0.025437
     98 H43        -3.1740    1.7050    2.8300 hc        1 MOL      0.025437
     99 H44        -2.4550    2.9970    6.0250 hc        1 MOL      0.055967
    100 H45        -2.6080    1.2720    5.8720 hc        1 MOL      0.055967
    101 H46        -1.1680    1.9600    6.7350 hc        1 MOL      0.055967
    102 N10        -1.9490    2.0560    0.1490 n         1 MOL     -0.421770
    103 C32        -2.7520    2.0790   -1.1000 c3        1 MOL     -0.083265
    104 C33        -4.1900    1.3330   -0.8280 c         1 MOL      0.628021
    105 O16        -4.2180    0.4950    0.0570 o         1 MOL     -0.379267
    106 C34        -1.9520    1.4940   -2.3060 c3        1 MOL     -0.365797
    107 C35        -0.4710    1.7380   -2.2940 c         1 MOL      0.875832
    108 O17        -0.0410    2.6170   -3.1040 o         1 MOL     -0.702402
    109 O18         0.2950    0.8050   -1.9360 o         1 MOL     -0.702402
    110 H47        -1.4500    1.1840    0.2530 hn        1 MOL      0.434420
    111 H48        -3.0720    3.1050   -1.2470 h1        1 MOL      0.089947
    112 H49        -2.4360    1.9040   -3.1860 hc        1 MOL      0.087390
    113 H50        -2.1440    0.4180   -2.2490 hc        1 MOL      0.087390
    114 N11        -5.2320    1.5570   -1.6300 n         1 MOL     -0.809330
    115 C36        -6.6060    1.2910   -1.2660 c3        1 MOL      0.477810
    116 C37        -6.9220   -0.2030   -1.0270 c         1 MOL      0.139515
    117 O19        -7.4830   -0.5110   -0.0290 o         1 MOL     -0.445066
    118 C38        -7.5530    1.9460   -2.2930 c3        1 MOL     -0.331456
    119 C39        -9.0370    1.9540   -1.9580 ca        1 MOL      0.194933
    120 C40        -9.8780    1.0250   -2.5420 ca        1 MOL     -0.268499
    121 C41        -9.4960    2.9240   -0.9870 ca        1 MOL     -0.268499
    122 C42       -11.1970    1.0260   -2.1600 ca        1 MOL      0.002614
    123 C43       -10.9110    2.9210   -0.6550 ca        1 MOL      0.002614
    124 C44       -11.7180    1.9860   -1.2660 ca        1 MOL     -0.216262
    125 H51        -5.0300    2.1330   -2.4380 hn        1 MOL      0.364205
    126 H52        -6.7170    1.6920   -0.2540 h1        1 MOL      0.029635
    127 H53        -7.3440    1.4720   -3.2500 hc        1 MOL      0.093784
    128 H54        -7.2480    2.9730   -2.5190 hc        1 MOL      0.093784
    129 H55        -9.5040    0.2730   -3.2170 ha        1 MOL      0.150817
    130 H56        -8.8290    3.6170   -0.5180 ha        1 MOL      0.150817
    131 H57       -11.8520    0.2690   -2.5850 ha        1 MOL      0.087108
    132 H58       -11.3290    3.7000   -0.0360 ha        1 MOL      0.087108
    133 H59       -12.7710    1.9820   -1.0160 ha        1 MOL      0.115715
    134 N12        -6.3750   -1.1340   -1.8380 n         1 MOL      0.090779
    135 C45        -6.5850   -2.5780   -1.5940 c3        1 MOL      0.191280
    136 C46        -5.7990   -3.0110   -0.3620 c         1 MOL      0.236823
    137 O20        -6.2450   -4.0130    0.1990 o         1 MOL     -0.504701
    138 C47        -6.3030   -3.3620   -2.8490 c3        1 MOL     -0.142263
    139 C48        -6.3620   -2.2800   -3.9350 c3        1 MOL     -0.141552
    140 C49        -5.9210   -1.0380   -3.2160 c3        1 MOL     -0.180226
    141 H60        -7.6120   -2.7710   -1.2990 h1        1 MOL      0.043982
    142 H61        -5.2990   -3.7690   -2.7830 hc        1 MOL      0.069523
    143 H62        -7.1170   -4.0850   -2.9600 hc        1 MOL      0.069523
    144 H63        -5.6560   -2.5370   -4.7270 hc        1 MOL      0.063484
    145 H64        -7.4100   -2.1410   -4.1900 hc        1 MOL      0.063484
    146 H65        -4.8270   -1.0850   -3.1900 h1        1 MOL      0.094512
    147 H66        -6.2190   -0.1910   -3.8510 h1        1 MOL      0.094512
    148 N13        -4.7580   -2.3100    0.1900 n         1 MOL     -0.115977
    149 C50        -4.1960   -2.4990    1.5340 c3        1 MOL      0.025890
    150 C51        -5.0980   -1.8760    2.6300 c         1 MOL      0.495902
    151 O21        -5.3910   -2.5950    3.5810 o         1 MOL     -0.566128
    152 C52        -2.7960   -1.8360    1.5070 c3        1 MOL     -0.106140
    153 C53        -1.7850   -2.2000    0.3170 c3        1 MOL     -0.214663
    154 C54        -0.4080   -1.6140    0.4230 c         1 MOL      0.586336
    155 O22         0.5900   -2.1530   -0.0880 o         1 MOL     -0.653755
    156 O23        -0.2620   -0.4860    0.9670 o         1 MOL     -0.653755
    157 H67        -4.3120   -1.5590   -0.3120 hn        1 MOL      0.115371
    158 H68        -4.1290   -3.5510    1.8240 h1        1 MOL      0.090759
    159 H69        -2.3700   -2.0990    2.4690 hc        1 MOL      0.017336
    160 H70        -2.8550   -0.7490    1.4200 hc        1 MOL      0.017336
    161 H71        -2.2020   -1.8630   -0.6300 hc        1 MOL      0.091236
    162 H72        -1.6140   -3.2740    0.2630 hc        1 MOL      0.091236
    163 N14        -5.6370   -0.6590    2.4460 n         1 MOL     -0.168474
    164 C55        -6.6940   -0.0750    3.2640 c3        1 MOL     -0.262670
    165 H73        -6.7520   -0.6050    4.2150 h1        1 MOL      0.101207
    166 H74        -6.4730    0.9770    3.4470 h1        1 MOL      0.101207
    167 H75        -7.6470   -0.1600    2.7420 h1        1 MOL      0.101207
    168 H76        -5.3430   -0.2680    1.5600 hn        1 MOL      0.170434
    169 Ca1         2.1090   -0.0460   -0.2870 Ca        1 MOL      1.691462
    170 O24         1.8830   -0.0940    2.4650 oh        1 MOL     -0.799125
    171 H77         0.9570   -0.1500    2.2110 ho        1 MOL      0.359242
    172 H78         1.8850   -0.2410    3.4120 ho        1 MOL      0.359242
    173 O25         4.5890    0.4260    0.9430 oh        1 MOL     -0.799125
    174 H79         5.0990    0.8310    1.6480 ho        1 MOL      0.359242
    175 H80         4.5960   -0.5080    1.1570 ho        1 MOL      0.359242
@<TRIPOS>BOND
     1    1    2 1   
     2    1    4 1   
     3    1    5 1   
     4    1    6 1   
     5    2    3 2   
     6    2    7 1   
     7    7    8 1   
     8    7   15 1   
     9    8    9 1   
    10    8   11 1   
    11    8   16 1   
    12    9   10 2   
    13    9   19 1   
    14   11   12 1   
    15   11   17 1   
    16   11   18 1   
    17   12   13 1   
    18   12   14 1   
    19   19   20 1   
    20   19   24 1   
    21   20   21 1   
    22   20   23 1   
    23   20   25 1   
    24   21   22 2   
    25   21   29 1   
    26   23   26 1   
    27   23   27 1   
    28   23   28 1   
    29   29   30 1   
    30   29   37 1   
    31   30   31 1   
    32   30   33 1   
    33   30   38 1   
    34   31   32 2   
    35   31   41 1   
    36   33   34 1   
    37   33   39 1   
    38   33   40 1   
    39   34   35 1   
    40   34   36 1   
    41   41   42 1   
    42   41   45 1   
    43   42   43 1   
    44   42   46 1   
    45   42   47 1   
    46   43   44 2   
    47   43   48 1   
    48   48   49 1   
    49   48   56 1   
    50   49   50 1   
    51   49   52 1   
    52   49   57 1   
    53   50   51 2   
    54   50   62 1   
    55   52   53 1   
    56   52   58 1   
    57   52   59 1   
    58   53   54 1   
    59   53   55 2   
    60   54   60 1   
    61   54   61 1   
    62   62   63 1   
    63   62   66 1   
    64   63   64 1   
    65   63   67 1   
    66   63   68 1   
    67   64   65 2   
    68   64   69 1   
    69   69   70 1   
    70   69   76 1   
    71   70   71 1   
    72   70   73 1   
    73   70   77 1   
    74   71   72 2   
    75   71   83 1   
    76   73   74 1   
    77   73   75 1   
    78   73   78 1   
    79   74   80 1   
    80   74   81 1   
    81   74   82 1   
    82   75   79 1   
    83   83   84 1   
    84   83   91 1   
    85   84   85 1   
    86   84   87 1   
    87   84   92 1   
    88   85   86 2   
    89   85  102 1   
    90   87   88 1   
    91   87   89 1   
    92   87   93 1   
    93   88   90 1   
    94   88   94 1   
    95   88   95 1   
    96   89   96 1   
    97   89   97 1   
    98   89   98 1   
    99   90   99 1   
   100   90  100 1   
   101   90  101 1   
   102  102  103 1   
   103  102  110 1   
   104  103  104 1   
   105  103  106 1   
   106  103  111 1   
   107  104  105 2   
   108  104  114 1   
   109  106  107 1   
   110  106  112 1   
   111  106  113 1   
   112  107  108 1   
   113  107  109 1   
   114  114  115 1   
   115  114  125 1   
   116  115  116 1   
   117  115  118 1   
   118  115  126 1   
   119  116  117 2   
   120  116  134 1   
   121  118  119 1   
   122  118  127 1   
   123  118  128 1   
   124  119  120 ar  
   125  119  121 ar  
   126  120  122 ar  
   127  120  129 1   
   128  121  123 ar  
   129  121  130 1   
   130  122  124 ar  
   131  122  131 1   
   132  123  124 ar  
   133  123  132 1   
   134  124  133 1   
   135  134  135 1   
   136  134  140 1   
   137  135  136 1   
   138  135  138 1   
   139  135  141 1   
   140  136  137 2   
   141  136  148 1   
   142  138  139 1   
   143  138  142 1   
   144  138  143 1   
   145  139  140 1   
   146  139  144 1   
   147  139  145 1   
   148  140  146 1   
   149  140  147 1   
   150  148  149 1   
   151  148  157 1   
   152  149  150 1   
   153  149  152 1   
   154  149  158 1   
   155  150  151 2   
   156  150  163 1   
   157  152  153 1   
   158  152  159 1   
   159  152  160 1   
   160  153  154 1   
   161  153  161 1   
   162  153  162 1   
   163  154  155 1   
   164  154  156 1   
   165  163  164 1   
   166  163  168 1   
   167  164  165 1   
   168  164  166 1   
   169  164  167 1   
   170  170  171 1   
   171  170  172 1   
   172  173  174 1   
   173  173  175 1   
@<TRIPOS>SUBSTRUCTURE
     1 MOL         1 TEMP              0 ****  ****    0 ROOT
