@<TRIPOS>MOLECULE
MOL
  179   176     1     0     0
SMALL
resp


@<TRIPOS>ATOM
      1 C1          2.6280    2.6980    4.8550 c3        1 MOL     -0.236289
      2 C2          1.7200    2.5920    3.5640 c         1 MOL      0.616166
      3 O1          2.2560    2.6470    2.4600 o         1 MOL     -0.570764
      4 H1          3.6250    3.0320    4.5710 hc        1 MOL      0.063298
      5 H2          2.1900    3.4140    5.5510 hc        1 MOL      0.063298
      6 H3          2.6960    1.7200    5.3340 hc        1 MOL      0.063298
      7 N1          0.4000    2.6270    3.6700 n         1 MOL     -0.554653
      8 C3         -0.4810    2.4940    2.5400 c3        1 MOL      0.241219
      9 C4         -0.5150    3.7560    1.7040 c         1 MOL      0.431415
     10 O2         -1.1050    4.7470    2.1610 o         1 MOL     -0.577471
     11 C5         -1.8600    1.9210    2.9350 c3        1 MOL     -0.079659
     12 C6         -2.7640    1.7140    1.7200 c         1 MOL      0.941350
     13 O3         -2.3890    1.7570    0.5370 o         1 MOL     -0.793767
     14 O4         -3.9240    1.3570    1.9480 o         1 MOL     -0.793767
     15 H4          0.0100    2.6900    4.6020 hn        1 MOL      0.312466
     16 H5         -0.0830    1.7120    1.8860 h1        1 MOL     -0.115055
     17 H6         -2.3470    2.6230    3.6070 hc        1 MOL      0.003359
     18 H7         -1.6940    0.9630    3.4270 hc        1 MOL      0.003359
     19 N2          0.1640    3.8620    0.5450 n         1 MOL      0.007429
     20 C7          0.3880    5.1440   -0.1290 c3        1 MOL     -0.018180
     21 C8         -0.7640    5.4990   -1.0640 c         1 MOL      0.405511
     22 O5         -0.8070    6.5800   -1.7310 o         1 MOL     -0.574935
     23 C9          1.7020    5.1890   -0.9630 c3        1 MOL     -0.018905
     24 C10         3.0090    5.1120   -0.1980 c3        1 MOL     -0.022658
     25 C11         3.0000    6.0780    1.0080 c3        1 MOL     -0.088499
     26 C12         2.5610    7.4870    0.7520 c3        1 MOL      0.070516
     27 N3          3.6600    8.2650    0.0890 n4        1 MOL     -0.360731
     28 H8          0.5780    3.0240    0.1880 hn        1 MOL      0.227706
     29 H9          0.4150    6.0030    0.5470 h1        1 MOL      0.035431
     30 H10         1.6420    6.1350   -1.5080 hc        1 MOL      0.016454
     31 H11         1.6940    4.3260   -1.6230 hc        1 MOL      0.016454
     32 H12         3.8120    5.3800   -0.8980 hc        1 MOL      0.032552
     33 H13         3.1330    4.0890    0.1390 hc        1 MOL      0.032552
     34 H14         4.0190    6.1380    1.3980 hc        1 MOL      0.059729
     35 H15         2.3720    5.6790    1.8080 hc        1 MOL      0.059729
     36 H16         2.3640    7.9600    1.7110 hx        1 MOL      0.080374
     37 H17         1.6810    7.5980    0.1140 hx        1 MOL      0.080374
     38 H18         3.4390    9.2500    0.0060 hn        1 MOL      0.317092
     39 H19         4.5260    8.2630    0.6000 hn        1 MOL      0.317092
     40 H20         3.8260    7.9610   -0.8530 hn        1 MOL      0.317092
     41 N4         -1.8070    4.6860   -1.1500 n         1 MOL     -0.086816
     42 C13        -3.0480    4.8930   -1.9610 c3        1 MOL      0.073242
     43 C14        -4.3560    4.5850   -1.1590 c         1 MOL      0.338849
     44 O6         -5.4250    4.9130   -1.5740 o         1 MOL     -0.485280
     45 C15        -2.9560    4.1010   -3.2310 c3        1 MOL     -0.190268
     46 C16        -2.4090    2.7260   -2.9750 c         1 MOL      0.726210
     47 O7         -1.2070    2.4230   -3.1760 o         1 MOL     -0.754102
     48 O8         -3.0440    1.8690   -2.3810 o         1 MOL     -0.754102
     49 H21        -1.7220    3.9000   -0.5160 hn        1 MOL     -0.075321
     50 H22        -3.1230    5.9700   -2.1620 h1        1 MOL      0.099495
     51 H23        -2.3300    4.6080   -3.9600 hc        1 MOL      0.064764
     52 H24        -3.9750    4.0040   -3.6270 hc        1 MOL      0.064764
     53 N5         -4.2470    4.0890    0.1070 n         1 MOL     -0.088497
     54 C17        -5.3730    3.8230    0.9200 c3        1 MOL     -0.233923
     55 C18        -6.1360    2.5670    0.4530 c         1 MOL      0.592650
     56 O9         -7.2650    2.3750    0.8730 o         1 MOL     -0.580278
     57 H25        -3.3110    4.0960    0.4940 hn        1 MOL      0.126688
     58 H26        -6.0590    4.6630    0.9370 h1        1 MOL      0.117476
     59 H27        -5.0120    3.6700    1.9330 h1        1 MOL      0.117476
     60 N6         -5.5730    1.7320   -0.4880 n         1 MOL     -0.340605
     61 C19        -6.2290    0.5910   -1.0520 c3        1 MOL      0.107302
     62 C20        -6.5520   -0.5190   -0.0970 c         1 MOL      0.287609
     63 O10        -7.1750   -1.4340   -0.5090 o         1 MOL     -0.498240
     64 C21        -5.6670    0.1970   -2.4340 c3        1 MOL     -0.368588
     65 C22        -4.5420   -0.7950   -2.3330 c         1 MOL      0.763702
     66 N7         -4.3280   -1.5940   -3.3540 n         1 MOL     -0.730429
     67 O11        -3.7910   -0.8710   -1.3900 o         1 MOL     -0.702107
     68 H28        -4.6230    1.9540   -0.7720 hn        1 MOL      0.257748
     69 H29        -7.2250    0.9880   -1.2290 h1        1 MOL      0.082618
     70 H30        -5.2330    1.0770   -2.9020 hc        1 MOL      0.123441
     71 H31        -6.5110   -0.1640   -3.0250 hc        1 MOL      0.123441
     72 H32        -4.9710   -1.6310   -4.1280 hn        1 MOL      0.348398
     73 H33        -3.4840   -2.1360   -3.3080 hn        1 MOL      0.348398
     74 N8         -5.9540   -0.5780    1.0490 n         1 MOL      0.055580
     75 C23        -6.2010   -1.5890    2.0880 c3        1 MOL     -0.415917
     76 C24        -5.1920   -2.6810    2.1250 c         1 MOL      0.727463
     77 O12        -5.2370   -3.5610    2.9840 o         1 MOL     -0.607167
     78 H34        -5.2990    0.1320    1.3380 hn        1 MOL      0.190300
     79 H35        -7.2630   -1.8550    2.0520 h1        1 MOL      0.147087
     80 H36        -6.1870   -1.0510    3.0370 h1        1 MOL      0.147087
     81 N9         -4.1460   -2.5900    1.3320 n         1 MOL     -0.375770
     82 C25        -2.9020   -3.4040    1.2600 c3        1 MOL      0.016545
     83 C26        -1.6100   -2.5300    1.2910 c         1 MOL      0.608643
     84 O13        -1.6140   -1.4370    0.7100 o         1 MOL     -0.754768
     85 C27        -2.9860   -4.2210   -0.1030 c3        1 MOL      0.135487
     86 C28        -4.2550   -5.0670   -0.2960 ca        1 MOL     -0.127490
     87 C29        -5.3040   -4.6260   -1.1260 ca        1 MOL     -0.097464
     88 C30        -4.3860   -6.2620    0.4630 ca        1 MOL     -0.097464
     89 C31        -6.5090   -5.3800   -1.2250 ca        1 MOL     -0.268476
     90 C32        -5.5900   -7.0090    0.3330 ca        1 MOL     -0.268476
     91 C33        -6.6870   -6.5740   -0.4880 ca        1 MOL      0.316299
     92 O14        -7.8900   -7.1400   -0.4010 oh        1 MOL     -0.436136
     93 H37        -4.0820   -1.9010    0.6070 hn        1 MOL      0.292085
     94 H38        -2.9400   -4.0640    2.1270 h1        1 MOL      0.062965
     95 H39        -2.1250   -4.8880   -0.1520 hc        1 MOL     -0.008417
     96 H40        -2.9780   -3.5640   -0.9750 hc        1 MOL     -0.008417
     97 H41        -5.2050   -3.6730   -1.6160 ha        1 MOL      0.117966
     98 H42        -3.5790   -6.5980    1.0950 ha        1 MOL      0.117966
     99 H43        -7.3770   -5.0060   -1.7470 ha        1 MOL      0.145677
    100 H44        -5.6240   -7.8820    0.9560 ha        1 MOL      0.145677
    101 H45        -7.8330   -7.8840    0.2030 ho        1 MOL      0.349073
    102 N10        -0.4820   -3.0380    1.8810 n         1 MOL     -0.485974
    103 C34         0.8560   -2.5400    1.6410 c3        1 MOL     -0.050805
    104 C35         1.7240   -3.6020    0.9390 c         1 MOL      0.525807
    105 O15         1.7630   -4.8120    1.3020 o         1 MOL     -0.551794
    106 C36         1.5590   -2.0380    2.9150 c3        1 MOL      0.012299
    107 C37         1.6680   -2.9290    4.0910 c3        1 MOL     -0.139243
    108 C38         0.6920   -0.8340    3.3770 c3        1 MOL     -0.005516
    109 C39         2.5020   -2.4090    5.2290 c3        1 MOL     -0.076390
    110 H46        -0.6590   -3.9090    2.3710 hn        1 MOL      0.286396
    111 H47         0.8180   -1.7430    0.8880 h1        1 MOL      0.201390
    112 H48         2.5390   -1.6200    2.7130 hc        1 MOL      0.018173
    113 H49         2.2550   -3.7820    3.7430 hc        1 MOL      0.072332
    114 H50         0.6770   -3.2340    4.4150 hc        1 MOL      0.072332
    115 H51        -0.2850   -1.1380    3.7540 hc        1 MOL      0.030169
    116 H52         1.0400   -0.2730    4.2340 hc        1 MOL      0.030169
    117 H53         0.6290   -0.1430    2.5250 hc        1 MOL      0.030169
    118 H54         2.7620   -3.2300    5.8960 hc        1 MOL      0.023671
    119 H55         3.4300   -1.9830    4.8640 hc        1 MOL      0.023671
    120 H56         1.9370   -1.6550    5.7860 hc        1 MOL      0.023671
    121 N11         2.4680   -3.1990   -0.1350 n         1 MOL     -0.323790
    122 C40         3.5690   -3.9010   -0.9200 c3        1 MOL     -0.050772
    123 C41         4.9470   -3.6740   -0.2920 c         1 MOL      0.568405
    124 O16         5.1900   -2.7290    0.4610 o         1 MOL     -0.410584
    125 C42         3.5390   -3.4090   -2.3750 c3        1 MOL     -0.176879
    126 O17         3.7840   -2.0620   -2.6090 oh        1 MOL     -0.440526
    127 H57         2.2650   -2.2640   -0.4490 hn        1 MOL      0.222484
    128 H58         3.2770   -4.9500   -0.9000 h1        1 MOL      0.094926
    129 H59         2.5440   -3.6940   -2.7050 h1        1 MOL      0.119925
    130 H60         4.1800   -4.0700   -2.9640 h1        1 MOL      0.119925
    131 H61         2.8770   -1.7850   -2.7720 ho        1 MOL      0.362304
    132 N12         5.9910   -4.4790   -0.6950 n         1 MOL     -0.581070
    133 C43         7.4250   -4.2480   -0.4610 c3        1 MOL      0.239406
    134 C44         7.8840   -2.9100   -1.0870 c         1 MOL      0.534851
    135 O18         8.6890   -2.2590   -0.4330 o         1 MOL     -0.522688
    136 C45         8.1330   -5.4370   -1.1030 c3        1 MOL     -0.268871
    137 H62         5.7980   -5.2370   -1.3410 hn        1 MOL      0.307317
    138 H63         7.7090   -4.1500    0.5840 h1        1 MOL      0.062344
    139 H64         9.1940   -5.3390   -0.8740 hc        1 MOL      0.075918
    140 H65         7.6740   -6.3770   -0.8130 hc        1 MOL      0.075918
    141 H66         7.9430   -5.3570   -2.1680 hc        1 MOL      0.075918
    142 N13         7.3260   -2.4320   -2.2430 n         1 MOL     -0.539193
    143 C46         7.6450   -1.1160   -2.7440 c3        1 MOL      0.195293
    144 C47         7.1330   -0.1080   -1.7810 c         1 MOL      0.307685
    145 O19         7.8460    0.9130   -1.7130 o         1 MOL     -0.537030
    146 C48         7.0610   -0.8470   -4.1340 c3        1 MOL     -0.272586
    147 H67         6.6460   -2.9940   -2.7290 hn        1 MOL      0.309153
    148 H68         8.7200   -0.9640   -2.8760 h1        1 MOL      0.082530
    149 H69         5.9700   -0.8070   -4.0570 hc        1 MOL      0.078761
    150 H70         7.3980    0.1100   -4.5330 hc        1 MOL      0.078761
    151 H71         7.4180   -1.6030   -4.8220 hc        1 MOL      0.078761
    152 N14         6.0240   -0.2380   -1.0920 n         1 MOL      0.153819
    153 C49         5.4660    0.7070   -0.1460 c3        1 MOL     -0.133443
    154 C50         6.2950    0.8160    1.1100 c         1 MOL      0.430714
    155 O20         6.6790    1.9230    1.5550 o         1 MOL     -0.546416
    156 C51         4.0770    0.4510    0.1370 c3        1 MOL      0.134175
    157 C52         3.1770    0.9750   -0.9720 c3        1 MOL      0.258929
    158 C53         1.6730    0.5570   -0.9020 c         1 MOL      0.597488
    159 O21         0.8240    1.3900   -0.5230 o         1 MOL     -0.706906
    160 O22         1.2220   -0.5910   -1.2040 o         1 MOL     -0.706906
    161 H72         5.4950   -1.0920   -1.2410 hn        1 MOL     -0.028673
    162 H73         5.5230    1.6790   -0.6400 h1        1 MOL      0.038039
    163 H74         3.7360    0.9440    1.0390 hc        1 MOL     -0.051468
    164 H75         3.8830   -0.6200    0.2030 hc        1 MOL     -0.051468
    165 H76         3.5760    0.7700   -1.9690 hc        1 MOL     -0.080929
    166 H77         3.2170    2.0600   -1.0050 hc        1 MOL     -0.080929
    167 N15         6.6720   -0.3300    1.5890 n         1 MOL     -0.082354
    168 C54         7.6190   -0.4960    2.7490 c3        1 MOL     -0.347572
    169 H78         8.6460   -0.3900    2.3970 h1        1 MOL      0.134704
    170 H79         7.4120    0.2670    3.5000 h1        1 MOL      0.134704
    171 H80         7.4880   -1.4850    3.1880 h1        1 MOL      0.134704
    172 H81         6.3230   -1.1450    1.1000 hn        1 MOL      0.131646
    173 Ca1        -1.4210    0.2330   -1.2760 Ca        1 MOL      1.827533
    174 O23        -1.1690   -0.0020   -4.0510 oh        1 MOL     -0.821927
    175 H82        -1.7080   -0.1400   -4.8280 ho        1 MOL      0.395427
    176 H83        -0.8940    0.9080   -4.1190 ho        1 MOL      0.395427
    177 O24        -0.8460   -2.2700   -2.3260 oh        1 MOL     -0.821927
    178 H84        -0.6610   -2.2190   -3.2690 ho        1 MOL      0.395427
    179 H85        -0.5490   -3.1340   -2.0590 ho        1 MOL      0.395427
@<TRIPOS>BOND
     1    1    2 1   
     2    1    4 1   
     3    1    5 1   
     4    1    6 1   
     5    2    3 2   
     6    2    7 1   
     7    7    8 1   
     8    7   15 1   
     9    8    9 1   
    10    8   11 1   
    11    8   16 1   
    12    9   10 2   
    13    9   19 1   
    14   11   12 1   
    15   11   17 1   
    16   11   18 1   
    17   12   13 1   
    18   12   14 1   
    19   19   20 1   
    20   19   28 1   
    21   20   21 1   
    22   20   23 1   
    23   20   29 1   
    24   21   22 2   
    25   21   41 1   
    26   23   24 1   
    27   23   30 1   
    28   23   31 1   
    29   24   25 1   
    30   24   32 1   
    31   24   33 1   
    32   25   26 1   
    33   25   34 1   
    34   25   35 1   
    35   26   27 1   
    36   26   36 1   
    37   26   37 1   
    38   27   38 1   
    39   27   39 1   
    40   27   40 1   
    41   41   42 1   
    42   41   49 1   
    43   42   43 1   
    44   42   45 1   
    45   42   50 1   
    46   43   44 2   
    47   43   53 1   
    48   45   46 1   
    49   45   51 1   
    50   45   52 1   
    51   46   47 1   
    52   46   48 1   
    53   53   54 1   
    54   53   57 1   
    55   54   55 1   
    56   54   58 1   
    57   54   59 1   
    58   55   56 2   
    59   55   60 1   
    60   60   61 1   
    61   60   68 1   
    62   61   62 1   
    63   61   64 1   
    64   61   69 1   
    65   62   63 2   
    66   62   74 1   
    67   64   65 1   
    68   64   70 1   
    69   64   71 1   
    70   65   66 1   
    71   65   67 2   
    72   66   72 1   
    73   66   73 1   
    74   74   75 1   
    75   74   78 1   
    76   75   76 1   
    77   75   79 1   
    78   75   80 1   
    79   76   77 2   
    80   76   81 1   
    81   81   82 1   
    82   81   93 1   
    83   82   83 1   
    84   82   85 1   
    85   82   94 1   
    86   83   84 2   
    87   83  102 1   
    88   85   86 1   
    89   85   95 1   
    90   85   96 1   
    91   86   87 ar  
    92   86   88 ar  
    93   87   89 ar  
    94   87   97 1   
    95   88   90 ar  
    96   88   98 1   
    97   89   91 ar  
    98   89   99 1   
    99   90   91 ar  
   100   90  100 1   
   101   91   92 1   
   102   92  101 1   
   103  102  103 1   
   104  102  110 1   
   105  103  104 1   
   106  103  106 1   
   107  103  111 1   
   108  104  105 2   
   109  104  121 1   
   110  106  107 1   
   111  106  108 1   
   112  106  112 1   
   113  107  109 1   
   114  107  113 1   
   115  107  114 1   
   116  108  115 1   
   117  108  116 1   
   118  108  117 1   
   119  109  118 1   
   120  109  119 1   
   121  109  120 1   
   122  121  122 1   
   123  121  127 1   
   124  122  123 1   
   125  122  125 1   
   126  122  128 1   
   127  123  124 2   
   128  123  132 1   
   129  125  126 1   
   130  125  129 1   
   131  125  130 1   
   132  126  131 1   
   133  132  133 1   
   134  132  137 1   
   135  133  134 1   
   136  133  136 1   
   137  133  138 1   
   138  134  135 2   
   139  134  142 1   
   140  136  139 1   
   141  136  140 1   
   142  136  141 1   
   143  142  143 1   
   144  142  147 1   
   145  143  144 1   
   146  143  146 1   
   147  143  148 1   
   148  144  145 2   
   149  144  152 1   
   150  146  149 1   
   151  146  150 1   
   152  146  151 1   
   153  152  153 1   
   154  152  161 1   
   155  153  154 1   
   156  153  156 1   
   157  153  162 1   
   158  154  155 2   
   159  154  167 1   
   160  156  157 1   
   161  156  163 1   
   162  156  164 1   
   163  157  158 1   
   164  157  165 1   
   165  157  166 1   
   166  158  159 1   
   167  158  160 1   
   168  167  168 1   
   169  167  172 1   
   170  168  169 1   
   171  168  170 1   
   172  168  171 1   
   173  174  175 1   
   174  174  176 1   
   175  177  178 1   
   176  177  179 1   
@<TRIPOS>SUBSTRUCTURE
     1 MOL         1 TEMP              0 ****  ****    0 ROOT
