@<TRIPOS>MOLECULE
MOL
  186   183     1     0     0
SMALL
resp


@<TRIPOS>ATOM
      1 C1          0.1960   -2.0670    6.0170 c3        1 MOL     -0.322276
      2 C2          0.7300   -2.0010    4.5590 c         1 MOL      0.676605
      3 O1          0.1080   -2.6710    3.7850 o         1 MOL     -0.573753
      4 H1          0.5690   -1.2100    6.5780 hc        1 MOL      0.073986
      5 H2         -0.8930   -2.0490    6.0070 hc        1 MOL      0.073986
      6 H3          0.5410   -2.9870    6.4900 hc        1 MOL      0.073986
      7 N1          1.7940   -1.2780    4.1720 n         1 MOL     -0.505365
      8 C3          2.4630   -1.3420    2.8580 c3        1 MOL      0.280100
      9 C4          3.0090   -2.7420    2.5160 c         1 MOL      0.302440
     10 O2          4.0180   -3.1260    3.0970 o         1 MOL     -0.533063
     11 C5          3.6690   -0.3670    2.8770 c3        1 MOL     -0.300830
     12 C6          4.5430   -0.4730    1.6490 c         1 MOL      0.859014
     13 O3          5.7770   -0.3480    1.8720 o         1 MOL     -0.655656
     14 O4          4.0460   -0.6010    0.5020 o         1 MOL     -0.655656
     15 H4          2.2340   -0.7540    4.9180 hn        1 MOL      0.280706
     16 H5          1.7720   -1.0770    2.0590 h1        1 MOL     -0.064038
     17 H6          4.2550   -0.6500    3.7470 hc        1 MOL      0.042781
     18 H7          3.2970    0.6430    3.0330 hc        1 MOL      0.042781
     19 N2          2.4070   -3.4440    1.5550 n         1 MOL     -0.037537
     20 C7          2.6680   -4.8650    1.1590 c3        1 MOL     -0.077976
     21 C8          3.8910   -5.0070    0.1610 c         1 MOL      0.371014
     22 O5          4.6970   -5.9120    0.3090 o         1 MOL     -0.552638
     23 C9          1.3520   -5.5570    0.7990 c3        1 MOL      0.171814
     24 C10         0.4800   -5.4490    2.0360 c3        1 MOL      0.093014
     25 C11         1.6510   -6.9650    0.3170 c3        1 MOL     -0.354587
     26 C12        -0.8520   -6.1220    1.7380 c3        1 MOL     -0.147525
     27 H8          1.6310   -2.9750    1.1190 hn        1 MOL      0.090302
     28 H9          2.9690   -5.3350    2.0980 h1        1 MOL      0.075901
     29 H10         0.7960   -5.0490    0.0070 hc        1 MOL      0.021246
     30 H11         0.1990   -4.4010    2.1940 hc        1 MOL     -0.012065
     31 H12         1.0250   -5.8570    2.8810 hc        1 MOL     -0.012065
     32 H13         2.4210   -6.9020   -0.4500 hc        1 MOL      0.082973
     33 H14         2.0670   -7.6700    1.0290 hc        1 MOL      0.082973
     34 H15         0.8600   -7.4310   -0.2620 hc        1 MOL      0.082973
     35 H16        -0.7320   -7.1610    1.4370 hc        1 MOL      0.018763
     36 H17        -1.5760   -6.1590    2.5510 hc        1 MOL      0.018763
     37 H18        -1.3080   -5.4730    0.9850 hc        1 MOL      0.018763
     38 N3          3.9520   -4.1320   -0.8500 n         1 MOL     -0.176826
     39 C13         4.8670   -4.2850   -2.0350 c3        1 MOL      0.017175
     40 C14         6.1520   -3.4670   -1.8110 c         1 MOL      0.384091
     41 O6          7.1640   -3.5290   -2.5870 o         1 MOL     -0.551636
     42 C15         4.1570   -3.8890   -3.3430 c3        1 MOL     -0.184121
     43 C16         3.5400   -2.4680   -3.2830 c         1 MOL      0.797914
     44 O7          2.8930   -2.0290   -4.3110 o         1 MOL     -0.738683
     45 O8          3.6140   -1.7780   -2.2460 o         1 MOL     -0.738683
     46 H19         3.2860   -3.3670   -0.7680 hn        1 MOL      0.129014
     47 H20         5.2040   -5.3210   -2.0720 h1        1 MOL      0.086622
     48 H21         3.3780   -4.6200   -3.5710 hc        1 MOL      0.046397
     49 H22         4.8930   -3.8510   -4.1490 hc        1 MOL      0.046397
     50 N4          6.2580   -2.7340   -0.7060 n         1 MOL     -0.109739
     51 C17         7.5010   -2.1090   -0.1660 c3        1 MOL     -0.300154
     52 C18         7.8570   -0.8400   -0.9360 c         1 MOL      0.622998
     53 O9          8.9680   -0.6810   -1.4910 o         1 MOL     -0.610909
     54 H23         5.4130   -2.6110   -0.1530 hn        1 MOL      0.229588
     55 H24         8.3560   -2.7810   -0.1780 h1        1 MOL      0.118448
     56 H25         7.3640   -1.7740    0.8650 h1        1 MOL      0.118448
     57 N5          6.9210    0.1380   -0.9210 n         1 MOL     -0.232065
     58 C19         7.2090    1.5030   -1.4450 c3        1 MOL      0.084989
     59 C20         7.1980    2.5850   -0.3590 c         1 MOL      0.367119
     60 O10         7.8180    3.5850   -0.4380 o         1 MOL     -0.536048
     61 C21         6.3350    1.9060   -2.5890 c3        1 MOL     -0.265457
     62 C22         4.8880    1.7680   -2.2330 c         1 MOL      0.863296
     63 O11         4.5240    1.9580   -1.0930 o         1 MOL     -0.802149
     64 O12         4.0430    1.5390   -3.1360 o         1 MOL     -0.802149
     65 H26         6.0820   -0.0380   -0.3860 hn        1 MOL      0.029505
     66 H27         8.1850    1.4860   -1.9170 h1        1 MOL      0.079349
     67 H28         6.6590    1.3140   -3.4490 hc        1 MOL      0.068800
     68 H29         6.5360    2.9480   -2.8400 hc        1 MOL      0.068800
     69 N6          6.6180    2.3350    0.8460 n         1 MOL     -0.162461
     70 C23         6.5000    3.3910    1.8900 c3        1 MOL     -0.016763
     71 C24         5.2740    4.3280    1.6890 c         1 MOL      0.592519
     72 O13         5.2270    5.3970    2.2280 o         1 MOL     -0.609051
     73 H30         6.0870    1.4950    0.9940 hn        1 MOL      0.095139
     74 H31         7.3900    4.0180    1.9460 h1        1 MOL      0.044392
     75 H32         6.4420    2.9140    2.8640 h1        1 MOL      0.044392
     76 N7          4.2330    3.9180    0.9360 n         1 MOL     -0.475190
     77 C25         2.8540    4.4690    1.0060 c3        1 MOL     -0.004568
     78 C26         1.8490    3.3230    1.1350 c         1 MOL      0.577924
     79 O14         2.0600    2.1490    0.6960 o         1 MOL     -0.700474
     80 C27         2.4580    5.3000   -0.1710 c3        1 MOL     -0.060272
     81 C28         3.1710    6.6910   -0.1390 c3        1 MOL     -0.210508
     82 C29         2.3770    7.6160   -0.9980 c         1 MOL      0.631388
     83 N8          2.5160    7.3890   -2.2960 n         1 MOL     -0.800257
     84 O15         1.7540    8.5320   -0.4760 o         1 MOL     -0.566702
     85 H33         4.3660    3.1300    0.3230 hn        1 MOL      0.408277
     86 H34         2.7160    5.0470    1.9290 h1        1 MOL      0.077461
     87 H35         1.3880    5.4630   -0.2350 hc        1 MOL      0.060585
     88 H36         2.7070    4.7240   -1.0590 hc        1 MOL      0.060585
     89 H37         4.1980    6.5610   -0.4920 hc        1 MOL      0.100178
     90 H38         3.0360    7.1120    0.8620 hc        1 MOL      0.100178
     91 H39         3.0230    6.6470   -2.7460 hn        1 MOL      0.350848
     92 H40         1.9470    7.9310   -2.9240 hn        1 MOL      0.350848
     93 N9          0.7230    3.6410    1.7440 n         1 MOL     -0.413654
     94 C30        -0.4330    2.7720    1.9220 c3        1 MOL      0.172123
     95 C31        -1.5350    3.0580    0.9110 c         1 MOL      0.314452
     96 O16        -2.2990    4.0380    1.1160 o         1 MOL     -0.560808
     97 C32        -0.9680    2.7490    3.3810 c3        1 MOL      0.095311
     98 C33        -2.1740    1.8440    3.3900 c3        1 MOL     -0.202968
     99 C34         0.0270    2.0320    4.3570 c3        1 MOL     -0.202968
    100 H41         0.7380    4.5960    2.0840 hn        1 MOL      0.244454
    101 H42        -0.1620    1.7400    1.6990 h1        1 MOL      0.159113
    102 H43        -1.2760    3.7500    3.6620 hc        1 MOL      0.005604
    103 H44        -2.5300    1.6960    4.4030 hc        1 MOL      0.036079
    104 H45        -2.9860    2.3340    2.8530 hc        1 MOL      0.036079
    105 H46        -1.9270    0.9000    2.8900 hc        1 MOL      0.036079
    106 H47        -0.2860    2.2860    5.3750 hc        1 MOL      0.036079
    107 H48         0.0070    0.9570    4.2350 hc        1 MOL      0.036079
    108 H49         1.0440    2.3340    4.1300 hc        1 MOL      0.036079
    109 N10        -1.6850    2.2900   -0.1120 n         1 MOL     -0.145112
    110 C35        -2.8530    2.3970   -1.0040 c3        1 MOL      0.044921
    111 C36        -4.1320    1.8930   -0.3520 c         1 MOL      0.153931
    112 O17        -4.0120    1.1440    0.6510 o         1 MOL     -0.151762
    113 C37        -2.6260    1.5680   -2.2710 c3        1 MOL     -0.226547
    114 C38        -3.7440    1.6890   -3.2410 c         1 MOL      0.689662
    115 N11        -4.0300    2.8510   -3.8870 n         1 MOL     -0.835624
    116 O18        -4.4940    0.8260   -3.3940 o         1 MOL     -0.504174
    117 H50        -1.1120    1.4920   -0.3750 hn        1 MOL      0.185483
    118 H51        -2.9820    3.4170   -1.3810 h1        1 MOL      0.046395
    119 H52        -2.6120    0.5450   -1.8970 hc        1 MOL      0.093715
    120 H53        -1.7010    1.9030   -2.7470 hc        1 MOL      0.093715
    121 H54        -3.4380    3.6550   -3.7350 hn        1 MOL      0.361508
    122 H55        -4.7550    2.7540   -4.5750 hn        1 MOL      0.361508
    123 N12        -5.3050    2.2970   -0.8350 n         1 MOL     -0.293514
    124 C39        -6.6300    1.9460   -0.2600 c3        1 MOL      0.182327
    125 C40        -6.7740    0.3890   -0.0230 c         1 MOL      0.677536
    126 O19        -7.1940   -0.1040    1.0310 o         1 MOL     -0.552557
    127 C41        -7.7700    2.4310   -1.0960 c3        1 MOL     -0.119687
    128 C42        -9.0660    1.9320   -0.5890 ca        1 MOL      0.168657
    129 C43        -9.6040    2.3840    0.6070 ca        1 MOL     -0.334238
    130 C44        -9.8200    1.1020   -1.4960 ca        1 MOL     -0.334238
    131 C45       -10.8740    1.9310    0.9810 ca        1 MOL     -0.088183
    132 C46       -11.0910    0.6290   -1.1580 ca        1 MOL     -0.088183
    133 C47       -11.6550    1.0810    0.0650 ca        1 MOL      0.185414
    134 O20       -12.9030    0.7270    0.3910 oh        1 MOL     -0.489630
    135 H56        -5.2250    3.0490   -1.5080 hn        1 MOL      0.220727
    136 H57        -6.7510    2.4010    0.7190 h1        1 MOL      0.006730
    137 H58        -7.6610    1.9760   -2.0830 hc        1 MOL      0.027236
    138 H59        -7.7230    3.5110   -1.2130 hc        1 MOL      0.027236
    139 H60        -9.0170    3.1270    1.1200 ha        1 MOL      0.179566
    140 H61        -9.4490    0.7800   -2.4590 ha        1 MOL      0.179566
    141 H62       -11.3610    2.2470    1.8900 ha        1 MOL      0.112981
    142 H63       -11.6520    0.0070   -1.8310 ha        1 MOL      0.112981
    143 H64       -13.3670    0.2090   -0.2660 ho        1 MOL      0.379297
    144 N13        -6.2880   -0.3710   -0.9900 n         1 MOL     -0.459963
    145 C48        -6.2200   -1.8600   -0.9660 c3        1 MOL     -0.048125
    146 C49        -5.3910   -2.4350    0.1330 c         1 MOL      0.378327
    147 O21        -5.5960   -3.4760    0.6270 o         1 MOL     -0.498129
    148 C50        -5.6740   -2.2810   -2.3180 c3        1 MOL      0.051502
    149 C51        -5.7830   -3.7660   -2.6210 c3        1 MOL     -0.347449
    150 C52        -5.1270   -4.1530   -3.9750 c         1 MOL      0.786750
    151 O22        -3.8790   -4.3230   -3.9520 o         1 MOL     -0.755155
    152 O23        -5.7670   -4.2870   -4.9920 o         1 MOL     -0.755155
    153 H65        -5.9480    0.1500   -1.7880 hn        1 MOL      0.219849
    154 H66        -7.2360   -2.2490   -0.9080 h1        1 MOL      0.094426
    155 H67        -4.6340   -1.9850   -2.4750 hc        1 MOL      0.024871
    156 H68        -6.2230   -1.7500   -3.0950 hc        1 MOL      0.024871
    157 H69        -6.8170   -4.0860   -2.5120 hc        1 MOL      0.055428
    158 H70        -5.2150   -4.3470   -1.9000 hc        1 MOL      0.055428
    159 N14        -4.3550   -1.6700    0.5240 n         1 MOL     -0.092483
    160 C53        -3.4020   -2.0660    1.5840 c3        1 MOL     -0.104147
    161 C54        -3.8880   -1.6230    2.8960 c         1 MOL      0.417291
    162 O24        -3.6960   -2.3370    3.9160 o         1 MOL     -0.556217
    163 C55        -2.0280   -1.4320    1.2810 c3        1 MOL      0.176518
    164 C56        -1.2450   -2.0830    0.1130 c3        1 MOL     -0.009835
    165 C57         0.0070   -1.2130   -0.3190 c         1 MOL      0.505660
    166 O25         1.1280   -1.8110   -0.3270 o         1 MOL     -0.639684
    167 O26        -0.1220   -0.0650   -0.7250 o         1 MOL     -0.639684
    168 H71        -4.2850   -0.7740    0.0740 hn        1 MOL      0.110683
    169 H72        -3.2410   -3.1400    1.5340 h1        1 MOL      0.132513
    170 H73        -1.2700   -1.5480    2.0520 hc        1 MOL     -0.008540
    171 H74        -2.0680   -0.3640    1.1030 hc        1 MOL     -0.008540
    172 H75        -1.8920   -2.1790   -0.7630 hc        1 MOL      0.022922
    173 H76        -0.9140   -3.1130    0.2550 hc        1 MOL      0.022922
    174 N15        -4.6980   -0.5190    2.9470 n         1 MOL      0.023654
    175 C58        -5.3420   -0.0380    4.1510 c3        1 MOL     -0.178791
    176 H77        -4.6180    0.5070    4.7570 h1        1 MOL      0.065029
    177 H78        -6.1640    0.6270    3.8830 h1        1 MOL      0.065029
    178 H79        -5.7290   -0.8830    4.7200 h1        1 MOL      0.065029
    179 H80        -4.7870    0.0000    2.0830 hn        1 MOL     -0.066350
    180 Ca1         2.3520    0.2580   -1.3480 Ca        1 MOL      1.774956
    181 O27         1.0210   -0.1190   -3.7450 oh        1 MOL     -0.872696
    182 H81         0.2040   -0.4290   -4.1420 ho        1 MOL      0.414138
    183 H82         1.6940   -0.6890   -4.1150 ho        1 MOL      0.414138
    184 O28         1.1540    2.6130   -2.6220 oh        1 MOL     -0.872696
    185 H83         1.5030    3.4670   -2.8660 ho        1 MOL      0.414138
    186 H84         1.1420    2.1090   -3.4330 ho        1 MOL      0.414138
@<TRIPOS>BOND
     1    1    2 1   
     2    1    4 1   
     3    1    5 1   
     4    1    6 1   
     5    2    3 2   
     6    2    7 1   
     7    7    8 1   
     8    7   15 1   
     9    8    9 1   
    10    8   11 1   
    11    8   16 1   
    12    9   10 2   
    13    9   19 1   
    14   11   12 1   
    15   11   17 1   
    16   11   18 1   
    17   12   13 1   
    18   12   14 1   
    19   19   20 1   
    20   19   27 1   
    21   20   21 1   
    22   20   23 1   
    23   20   28 1   
    24   21   22 2   
    25   21   38 1   
    26   23   24 1   
    27   23   25 1   
    28   23   29 1   
    29   24   26 1   
    30   24   30 1   
    31   24   31 1   
    32   25   32 1   
    33   25   33 1   
    34   25   34 1   
    35   26   35 1   
    36   26   36 1   
    37   26   37 1   
    38   38   39 1   
    39   38   46 1   
    40   39   40 1   
    41   39   42 1   
    42   39   47 1   
    43   40   41 2   
    44   40   50 1   
    45   42   43 1   
    46   42   48 1   
    47   42   49 1   
    48   43   44 1   
    49   43   45 1   
    50   50   51 1   
    51   50   54 1   
    52   51   52 1   
    53   51   55 1   
    54   51   56 1   
    55   52   53 2   
    56   52   57 1   
    57   57   58 1   
    58   57   65 1   
    59   58   59 1   
    60   58   61 1   
    61   58   66 1   
    62   59   60 2   
    63   59   69 1   
    64   61   62 1   
    65   61   67 1   
    66   61   68 1   
    67   62   63 1   
    68   62   64 1   
    69   69   70 1   
    70   69   73 1   
    71   70   71 1   
    72   70   74 1   
    73   70   75 1   
    74   71   72 2   
    75   71   76 1   
    76   76   77 1   
    77   76   85 1   
    78   77   78 1   
    79   77   80 1   
    80   77   86 1   
    81   78   79 2   
    82   78   93 1   
    83   80   81 1   
    84   80   87 1   
    85   80   88 1   
    86   81   82 1   
    87   81   89 1   
    88   81   90 1   
    89   82   83 1   
    90   82   84 2   
    91   83   91 1   
    92   83   92 1   
    93   93   94 1   
    94   93  100 1   
    95   94   95 1   
    96   94   97 1   
    97   94  101 1   
    98   95   96 2   
    99   95  109 1   
   100   97   98 1   
   101   97   99 1   
   102   97  102 1   
   103   98  103 1   
   104   98  104 1   
   105   98  105 1   
   106   99  106 1   
   107   99  107 1   
   108   99  108 1   
   109  109  110 1   
   110  109  117 1   
   111  110  111 1   
   112  110  113 1   
   113  110  118 1   
   114  111  112 2   
   115  111  123 1   
   116  113  114 1   
   117  113  119 1   
   118  113  120 1   
   119  114  115 1   
   120  114  116 2   
   121  115  121 1   
   122  115  122 1   
   123  123  124 1   
   124  123  135 1   
   125  124  125 1   
   126  124  127 1   
   127  124  136 1   
   128  125  126 2   
   129  125  144 1   
   130  127  128 1   
   131  127  137 1   
   132  127  138 1   
   133  128  129 ar  
   134  128  130 ar  
   135  129  131 ar  
   136  129  139 1   
   137  130  132 ar  
   138  130  140 1   
   139  131  133 ar  
   140  131  141 1   
   141  132  133 ar  
   142  132  142 1   
   143  133  134 1   
   144  134  143 1   
   145  144  145 1   
   146  144  153 1   
   147  145  146 1   
   148  145  148 1   
   149  145  154 1   
   150  146  147 2   
   151  146  159 1   
   152  148  149 1   
   153  148  155 1   
   154  148  156 1   
   155  149  150 1   
   156  149  157 1   
   157  149  158 1   
   158  150  151 1   
   159  150  152 1   
   160  159  160 1   
   161  159  168 1   
   162  160  161 1   
   163  160  163 1   
   164  160  169 1   
   165  161  162 2   
   166  161  174 1   
   167  163  164 1   
   168  163  170 1   
   169  163  171 1   
   170  164  165 1   
   171  164  172 1   
   172  164  173 1   
   173  165  166 1   
   174  165  167 1   
   175  174  175 1   
   176  174  179 1   
   177  175  176 1   
   178  175  177 1   
   179  175  178 1   
   180  181  182 1   
   181  181  183 1   
   182  184  185 1   
   183  184  186 1   
@<TRIPOS>SUBSTRUCTURE
     1 MOL         1 TEMP              0 ****  ****    0 ROOT
