@<TRIPOS>MOLECULE
MOL
  172   171     1     0     0
SMALL
resp


@<TRIPOS>ATOM
      1 C1          0.3010   -3.3410    5.8790 c3        1 MOL     -0.298504
      2 C2          0.6400   -3.0800    4.4130 c         1 MOL      0.681989
      3 O1          0.1300   -3.7830    3.5320 o         1 MOL     -0.564476
      4 H1          0.8800   -2.6660    6.5110 hc        1 MOL      0.071880
      5 H2         -0.7630   -3.1680    6.0430 hc        1 MOL      0.071880
      6 H3          0.5450   -4.3720    6.1310 hc        1 MOL      0.071880
      7 N1          1.5900   -2.2090    4.0460 n         1 MOL     -0.564032
      8 C3          2.0900   -2.1000    2.6360 c3        1 MOL     -0.046777
      9 C4          2.6150   -3.5010    2.1370 c         1 MOL      0.750126
     10 O2          3.5120   -4.0480    2.7340 o         1 MOL     -0.608570
     11 C5          3.2250   -1.0060    2.5390 c3        1 MOL     -0.242185
     12 C6          3.9570   -0.8950    1.2520 c         1 MOL      0.739008
     13 O3          5.1060   -0.4300    1.2290 o         1 MOL     -0.635392
     14 O4          3.3750   -1.1950    0.1610 o         1 MOL     -0.635392
     15 H4          2.0680   -1.6250    4.7150 hn        1 MOL      0.326753
     16 H5          1.1830   -1.8630    2.0770 h1        1 MOL      0.034648
     17 H6          3.9220   -1.0910    3.3830 hc        1 MOL      0.066521
     18 H7          2.6720   -0.0810    2.7180 hc        1 MOL      0.066521
     19 N2          2.2080   -3.8740    0.9240 n         1 MOL     -0.589771
     20 C7          2.7150   -5.1080    0.3020 c3        1 MOL      0.366497
     21 C8          3.4530   -4.8290   -1.0420 c         1 MOL      0.332246
     22 O5          3.6910   -5.7660   -1.8280 o         1 MOL     -0.545382
     23 C9          1.6610   -6.2290    0.4000 c3        1 MOL     -0.284098
     24 H8          1.5040   -3.3810    0.4020 hn        1 MOL      0.347957
     25 H9          3.6120   -5.3080    0.8860 h1        1 MOL     -0.025710
     26 H10         2.0850   -7.0580   -0.1700 hc        1 MOL      0.064752
     27 H11         1.5310   -6.5110    1.4510 hc        1 MOL      0.064752
     28 H12         0.7090   -5.8920   -0.0020 hc        1 MOL      0.064752
     29 N3          3.8070   -3.5840   -1.4340 n         1 MOL     -0.080707
     30 C10         4.8930   -3.3320   -2.4310 c3        1 MOL      0.055197
     31 C11         6.3070   -3.2480   -1.8150 c         1 MOL      0.356602
     32 O6          7.2360   -3.7200   -2.5310 o         1 MOL     -0.530533
     33 C12         4.6230   -2.0440   -3.2990 c3        1 MOL     -0.061656
     34 C13         3.2320   -1.8090   -3.9040 c         1 MOL      0.571122
     35 O7          2.4230   -1.0320   -3.3550 o         1 MOL     -0.676967
     36 O8          2.9010   -2.5020   -4.9520 o         1 MOL     -0.676967
     37 H13         3.3680   -2.7790   -0.9980 hn        1 MOL      0.049981
     38 H14         4.9350   -4.1390   -3.1620 h1        1 MOL      0.058469
     39 H15         5.3980   -2.0320   -4.0650 hc        1 MOL      0.016591
     40 H16         4.8660   -1.1680   -2.6900 hc        1 MOL      0.016591
     41 N4          6.4610   -2.5340   -0.6980 n         1 MOL     -0.179955
     42 C14         7.7530   -1.9920   -0.2190 c3        1 MOL     -0.197358
     43 C15         8.0920   -0.4860   -0.5110 c         1 MOL      0.582706
     44 O9          9.2520   -0.0780   -0.4960 o         1 MOL     -0.598462
     45 H17         5.6100   -2.2040   -0.2580 hn        1 MOL      0.151922
     46 H18         8.5310   -2.4840   -0.7900 h1        1 MOL      0.099588
     47 H19         7.7590   -2.1980    0.8530 h1        1 MOL      0.099588
     48 N5          7.0420    0.3380   -0.7810 n         1 MOL     -0.270666
     49 C16         7.0910    1.7670   -1.1950 c3        1 MOL     -0.038902
     50 C17         6.7690    2.6990   -0.0960 c         1 MOL      0.342686
     51 O10         6.7910    3.9430   -0.4020 o         1 MOL     -0.547697
     52 C18         6.1820    1.9310   -2.4610 c3        1 MOL     -0.253719
     53 C19         4.7170    2.2480   -2.2430 c         1 MOL      0.682026
     54 N6          4.1930    3.3440   -2.5910 n         1 MOL     -0.667051
     55 O11         3.9060    1.5040   -1.5880 o         1 MOL     -0.694954
     56 H20         6.1470   -0.0220   -0.4810 hn        1 MOL      0.244546
     57 H21         8.0910    2.0850   -1.4700 h1        1 MOL      0.147192
     58 H22         6.3080    0.9830   -2.9880 hc        1 MOL      0.094011
     59 H23         6.6210    2.7250   -3.0460 hc        1 MOL      0.094011
     60 H24         4.7710    4.1560   -2.7470 hn        1 MOL      0.319290
     61 H25         3.2740    3.5630   -2.2210 hn        1 MOL      0.319290
     62 N7          6.4370    2.2730    1.1110 n         1 MOL     -0.077535
     63 C20         6.1280    3.1970    2.2260 c3        1 MOL     -0.251860
     64 C21         4.9030    4.1660    2.0990 c         1 MOL      0.617707
     65 O12         4.8720    5.1160    2.8690 o         1 MOL     -0.571297
     66 H26         6.3650    1.2750    1.2200 hn        1 MOL      0.148541
     67 H27         6.9830    3.8590    2.3810 h1        1 MOL      0.113408
     68 H28         5.9590    2.5500    3.0800 h1        1 MOL      0.113408
     69 N8          3.9150    3.8750    1.2530 n         1 MOL     -0.316058
     70 C22         2.5590    4.4000    1.3740 c3        1 MOL     -0.052333
     71 C23         1.5480    3.2500    1.1210 c         1 MOL      0.533041
     72 O13         1.9290    2.1410    0.5800 o         1 MOL     -0.559455
     73 C24         2.2610    5.4850    0.3240 c3        1 MOL      0.233775
     74 C25         3.1150    6.6660    0.5410 c3        1 MOL     -0.280292
     75 O14         2.4470    5.0380   -0.9920 oh        1 MOL     -0.627086
     76 H29         3.9260    2.9920    0.7700 hn        1 MOL      0.259686
     77 H30         2.4220    4.7840    2.3810 h1        1 MOL      0.086793
     78 H31         1.2340    5.8320    0.4670 h1        1 MOL      0.028850
     79 H32         2.7500    5.7720   -1.5230 ho        1 MOL      0.420706
     80 H33         3.0470    7.4480   -0.2100 hc        1 MOL      0.079520
     81 H34         2.8700    7.1550    1.4830 hc        1 MOL      0.079520
     82 H35         4.1620    6.3670    0.5940 hc        1 MOL      0.079520
     83 N9          0.3220    3.5380    1.6220 n         1 MOL     -0.382937
     84 C26        -0.7820    2.4930    1.5560 c3        1 MOL      0.134159
     85 C27        -1.8060    2.7610    0.4200 c         1 MOL      0.363826
     86 O15        -2.3760    3.8790    0.1860 o         1 MOL     -0.569007
     87 C28        -1.4590    2.5770    2.8630 c3        1 MOL     -0.043723
     88 C29        -0.5390    2.1830    4.0510 c3        1 MOL      0.097530
     89 C30        -2.7840    1.8450    3.0000 c3        1 MOL     -0.087834
     90 C31        -0.2230    0.7010    4.0860 c3        1 MOL      0.129040
     91 H36         0.1590    4.4820    1.9380 hn        1 MOL      0.264098
     92 H37        -0.3550    1.4880    1.4800 h1        1 MOL     -0.017837
     93 H38        -1.6830    3.6330    2.9990 hc        1 MOL      0.021367
     94 H39        -1.0300    2.4260    4.9830 hc        1 MOL     -0.042927
     95 H40         0.3450    2.8250    4.1300 hc        1 MOL     -0.042927
     96 H41        -3.0740    1.8580    4.0480 hc        1 MOL      0.010490
     97 H42        -3.5300    2.3600    2.3870 hc        1 MOL      0.010490
     98 H43        -2.6300    0.7910    2.7630 hc        1 MOL      0.010490
     99 H44         0.5940    0.5320    4.7870 hc        1 MOL     -0.045589
    100 H45        -1.0290    0.0440    4.3840 hc        1 MOL     -0.045589
    101 H46         0.1790    0.3570    3.1240 hc        1 MOL     -0.045589
    102 N10        -2.0720    1.7730   -0.4370 n         1 MOL     -0.088577
    103 C32        -3.0690    1.8360   -1.5180 c3        1 MOL      0.024069
    104 C33        -4.4500    1.4020   -0.8670 c         1 MOL      0.364614
    105 O16        -4.4960    0.8080    0.1750 o         1 MOL     -0.220638
    106 C34        -2.6510    0.9100   -2.6440 c3        1 MOL     -0.401775
    107 C35        -1.2190    1.1570   -3.0670 c         1 MOL      0.827849
    108 O17        -0.8300    2.1940   -3.6760 o         1 MOL     -0.723912
    109 O18        -0.3610    0.2850   -2.7110 o         1 MOL     -0.723912
    110 H47        -1.4690    0.9730   -0.3790 hn        1 MOL      0.158733
    111 H48        -3.0830    2.8750   -1.8510 h1        1 MOL      0.077903
    112 H49        -3.1830    1.1370   -3.5640 hc        1 MOL      0.109253
    113 H50        -2.7180   -0.1240   -2.3210 hc        1 MOL      0.109253
    114 N11        -5.5490    1.6040   -1.5970 n         1 MOL     -0.550912
    115 C36        -6.9270    1.2490   -1.1080 c3        1 MOL      0.341217
    116 C37        -6.9550   -0.2730   -0.6800 c         1 MOL      0.242987
    117 O19        -7.4080   -0.4870    0.4650 o         1 MOL     -0.483157
    118 C38        -8.0370    1.7550   -2.1260 c3        1 MOL     -0.214764
    119 C39        -9.4130    1.7080   -1.5640 ca        1 MOL      0.115761
    120 C40       -10.0110    2.8310   -1.0360 ca        1 MOL     -0.196854
    121 C41       -10.1620    0.4950   -1.6610 ca        1 MOL     -0.196854
    122 C42       -11.3760    2.7450   -0.5750 ca        1 MOL     -0.041566
    123 C43       -11.4810    0.4340   -1.1650 ca        1 MOL     -0.041566
    124 C44       -12.0750    1.5940   -0.6160 ca        1 MOL     -0.199716
    125 H51        -5.5130    1.9030   -2.5580 hn        1 MOL      0.292871
    126 H52        -7.0100    1.8040   -0.1760 h1        1 MOL      0.036117
    127 H53        -7.9240    1.0460   -2.9500 hc        1 MOL      0.063622
    128 H54        -7.7550    2.7690   -2.3820 hc        1 MOL      0.063622
    129 H55        -9.4440    3.7380   -0.9300 ha        1 MOL      0.125534
    130 H56        -9.6510   -0.3830   -2.0180 ha        1 MOL      0.125534
    131 H57       -11.7690    3.6320   -0.1140 ha        1 MOL      0.094253
    132 H58       -11.9660   -0.5260   -1.2270 ha        1 MOL      0.094253
    133 H59       -13.0100    1.5500   -0.0780 ha        1 MOL      0.125585
    134 N12        -6.5020   -1.2470   -1.4760 n         1 MOL      0.062796
    135 C45        -6.5810   -2.6680   -1.0820 c3        1 MOL     -0.090477
    136 C46        -5.7790   -2.9670    0.1730 c         1 MOL      0.344195
    137 O20        -6.2020   -3.7250    0.9880 o         1 MOL     -0.499103
    138 C47        -6.0030   -3.4920   -2.2500 c3        1 MOL     -0.065042
    139 C48        -6.1490   -2.5510   -3.4650 c3        1 MOL      0.029482
    140 C49        -5.9460   -1.2180   -2.8220 c3        1 MOL     -0.101538
    141 H60        -7.6100   -2.9420   -0.8490 h1        1 MOL      0.094652
    142 H61        -4.9290   -3.6810   -2.2290 hc        1 MOL      0.057178
    143 H62        -6.4610   -4.4600   -2.4730 hc        1 MOL      0.057178
    144 H63        -5.5050   -2.6890   -4.3400 hc        1 MOL      0.010894
    145 H64        -7.2060   -2.5770   -3.7270 hc        1 MOL      0.010894
    146 H65        -4.8870   -0.9490   -2.7440 h1        1 MOL      0.047268
    147 H66        -6.3590   -0.4140   -3.4270 h1        1 MOL      0.047268
    148 N13        -4.7350   -2.2500    0.4690 n         1 MOL     -0.086939
    149 C50        -3.9720   -2.3340    1.6950 c3        1 MOL     -0.267227
    150 C51        -4.6380   -1.5800    2.9080 c         1 MOL      0.565805
    151 O21        -4.8130   -2.1570    3.9470 o         1 MOL     -0.590895
    152 C52        -2.5000   -1.7670    1.4050 c3        1 MOL      0.044052
    153 C53        -1.7720   -2.3970    0.2100 c3        1 MOL     -0.093001
    154 C54        -0.4220   -1.7550   -0.0010 c         1 MOL      0.640931
    155 O22        -0.2790   -0.5300    0.2370 o         1 MOL     -0.683446
    156 O23         0.5700   -2.3440   -0.4730 o         1 MOL     -0.683446
    157 H67        -4.5590   -1.4450   -0.1100 hn        1 MOL      0.133928
    158 H68        -3.8080   -3.3960    1.8950 h1        1 MOL      0.137574
    159 H69        -1.8780   -1.7950    2.3000 hc        1 MOL      0.064371
    160 H70        -2.7350   -0.7310    1.1480 hc        1 MOL      0.064371
    161 H71        -2.4110   -2.3320   -0.6780 hc        1 MOL      0.034044
    162 H72        -1.6900   -3.4590    0.4520 hc        1 MOL      0.034044
    163 N14        -5.1510   -0.3640    2.7590 n         1 MOL      0.032021
    164 C55        -5.9930    0.3530    3.7620 c3        1 MOL     -0.221668
    165 H73        -5.3490    0.8730    4.4710 h1        1 MOL      0.080351
    166 H74        -6.6300    1.0760    3.2520 h1        1 MOL      0.080351
    167 H75        -6.6140   -0.3670    4.2960 h1        1 MOL      0.080351
    168 H76        -5.0390   -0.0490    1.8110 hn        1 MOL     -0.028418
    169 Ca1         1.7030    0.1680   -1.2530 Ca        1 MOL      1.705162
    170 O24         1.2420    2.7610   -2.1080 oh        1 MOL     -0.837474
    171 H77         1.6940    3.6090   -2.1070 ho        1 MOL      0.398450
    172 H78         0.4650    2.9040   -2.6630 ho        1 MOL      0.398450
@<TRIPOS>BOND
     1    1    2 1   
     2    1    4 1   
     3    1    5 1   
     4    1    6 1   
     5    2    3 2   
     6    2    7 1   
     7    7    8 1   
     8    7   15 1   
     9    8    9 1   
    10    8   11 1   
    11    8   16 1   
    12    9   10 2   
    13    9   19 1   
    14   11   12 1   
    15   11   17 1   
    16   11   18 1   
    17   12   13 1   
    18   12   14 1   
    19   19   20 1   
    20   19   24 1   
    21   20   21 1   
    22   20   23 1   
    23   20   25 1   
    24   21   22 2   
    25   21   29 1   
    26   23   26 1   
    27   23   27 1   
    28   23   28 1   
    29   29   30 1   
    30   29   37 1   
    31   30   31 1   
    32   30   33 1   
    33   30   38 1   
    34   31   32 2   
    35   31   41 1   
    36   33   34 1   
    37   33   39 1   
    38   33   40 1   
    39   34   35 1   
    40   34   36 1   
    41   41   42 1   
    42   41   45 1   
    43   42   43 1   
    44   42   46 1   
    45   42   47 1   
    46   43   44 2   
    47   43   48 1   
    48   48   49 1   
    49   48   56 1   
    50   49   50 1   
    51   49   52 1   
    52   49   57 1   
    53   50   51 2   
    54   50   62 1   
    55   52   53 1   
    56   52   58 1   
    57   52   59 1   
    58   53   54 1   
    59   53   55 2   
    60   54   60 1   
    61   54   61 1   
    62   62   63 1   
    63   62   66 1   
    64   63   64 1   
    65   63   67 1   
    66   63   68 1   
    67   64   65 2   
    68   64   69 1   
    69   69   70 1   
    70   69   76 1   
    71   70   71 1   
    72   70   73 1   
    73   70   77 1   
    74   71   72 2   
    75   71   83 1   
    76   73   74 1   
    77   73   75 1   
    78   73   78 1   
    79   74   80 1   
    80   74   81 1   
    81   74   82 1   
    82   75   79 1   
    83   83   84 1   
    84   83   91 1   
    85   84   85 1   
    86   84   87 1   
    87   84   92 1   
    88   85   86 2   
    89   85  102 1   
    90   87   88 1   
    91   87   89 1   
    92   87   93 1   
    93   88   90 1   
    94   88   94 1   
    95   88   95 1   
    96   89   96 1   
    97   89   97 1   
    98   89   98 1   
    99   90   99 1   
   100   90  100 1   
   101   90  101 1   
   102  102  103 1   
   103  102  110 1   
   104  103  104 1   
   105  103  106 1   
   106  103  111 1   
   107  104  105 2   
   108  104  114 1   
   109  106  107 1   
   110  106  112 1   
   111  106  113 1   
   112  107  108 1   
   113  107  109 1   
   114  114  115 1   
   115  114  125 1   
   116  115  116 1   
   117  115  118 1   
   118  115  126 1   
   119  116  117 2   
   120  116  134 1   
   121  118  119 1   
   122  118  127 1   
   123  118  128 1   
   124  119  120 ar  
   125  119  121 ar  
   126  120  122 ar  
   127  120  129 1   
   128  121  123 ar  
   129  121  130 1   
   130  122  124 ar  
   131  122  131 1   
   132  123  124 ar  
   133  123  132 1   
   134  124  133 1   
   135  134  135 1   
   136  134  140 1   
   137  135  136 1   
   138  135  138 1   
   139  135  141 1   
   140  136  137 2   
   141  136  148 1   
   142  138  139 1   
   143  138  142 1   
   144  138  143 1   
   145  139  140 1   
   146  139  144 1   
   147  139  145 1   
   148  140  146 1   
   149  140  147 1   
   150  148  149 1   
   151  148  157 1   
   152  149  150 1   
   153  149  152 1   
   154  149  158 1   
   155  150  151 2   
   156  150  163 1   
   157  152  153 1   
   158  152  159 1   
   159  152  160 1   
   160  153  154 1   
   161  153  161 1   
   162  153  162 1   
   163  154  155 1   
   164  154  156 1   
   165  163  164 1   
   166  163  168 1   
   167  164  165 1   
   168  164  166 1   
   169  164  167 1   
   170  170  171 1   
   171  170  172 1   
@<TRIPOS>SUBSTRUCTURE
     1 MOL         1 TEMP              0 ****  ****    0 ROOT
