@<TRIPOS>MOLECULE
MOL
  183   181     1     0     0
SMALL
resp


@<TRIPOS>ATOM
      1 C1         -0.9840    2.2480    5.8220 c3        1 MOL     -0.336517
      2 C2         -1.3760    2.1610    4.3960 c         1 MOL      0.843162
      3 O1         -0.8720    2.9030    3.5110 o         1 MOL     -0.681819
      4 H1         -1.0150    1.2540    6.2680 hc        1 MOL      0.079828
      5 H2          0.0270    2.6490    5.8980 hc        1 MOL      0.079828
      6 H3         -1.6770    2.9040    6.3500 hc        1 MOL      0.079828
      7 N1         -2.4130    1.3140    4.0800 n         1 MOL     -0.760838
      8 C3         -3.0960    1.3010    2.7400 c3        1 MOL      0.599789
      9 C4         -3.5410    2.6920    2.3170 c         1 MOL      0.265198
     10 O2         -4.4240    3.2700    2.9750 o         1 MOL     -0.566700
     11 C5         -4.2450    0.2970    2.7150 c3        1 MOL     -0.417769
     12 C6         -5.0390    0.1590    1.4170 c         1 MOL      0.864602
     13 O3         -6.2360   -0.1900    1.4830 o         1 MOL     -0.668086
     14 O4         -4.4970    0.4750    0.3770 o         1 MOL     -0.668086
     15 H4         -2.8390    0.7700    4.8230 hn        1 MOL      0.323487
     16 H5         -2.3020    1.0040    2.0610 h1        1 MOL     -0.059378
     17 H6         -4.9340    0.6000    3.5060 hc        1 MOL      0.054922
     18 H7         -3.8540   -0.7040    2.9280 hc        1 MOL      0.054922
     19 N2         -3.0670    3.2440    1.1980 n         1 MOL     -0.017163
     20 C7         -3.4240    4.5960    0.7630 c3        1 MOL     -0.034694
     21 C8         -4.4450    4.7040   -0.3740 c         1 MOL      0.389034
     22 O5         -5.2080    5.6360   -0.5160 o         1 MOL     -0.533648
     23 C9         -2.1430    5.3670    0.4210 c3        1 MOL      0.313338
     24 C10        -0.9960    5.1840    1.4340 c3        1 MOL      0.305214
     25 C11        -2.5260    6.8460    0.2610 c3        1 MOL     -0.321604
     26 C12         0.2260    6.1640    1.2740 c3        1 MOL     -0.235885
     27 H8         -2.4700    2.7010    0.5940 hn        1 MOL     -0.016439
     28 H9         -3.6900    5.1660    1.6470 h1        1 MOL      0.048978
     29 H10        -1.7110    5.0530   -0.5310 hc        1 MOL     -0.068898
     30 H11        -0.5210    4.2080    1.2780 hc        1 MOL     -0.046337
     31 H12        -1.3670    5.4530    2.4260 hc        1 MOL     -0.046337
     32 H13        -1.7190    7.5260   -0.0310 hc        1 MOL      0.046064
     33 H14        -3.2730    6.9360   -0.5260 hc        1 MOL      0.046064
     34 H15        -3.0280    7.1790    1.1740 hc        1 MOL      0.046064
     35 H16        -0.0580    7.1130    1.7090 hc        1 MOL      0.027339
     36 H17         1.0310    5.8820    1.9510 hc        1 MOL      0.027339
     37 H18         0.4730    6.1960    0.2150 hc        1 MOL      0.027339
     38 N3         -4.4140    3.6540   -1.2400 n         1 MOL     -0.284639
     39 C13        -5.3800    3.5320   -2.3610 c3        1 MOL      0.085752
     40 C14        -6.6410    2.7760   -1.9940 c         1 MOL      0.433762
     41 O6         -7.5290    2.7510   -2.8200 o         1 MOL     -0.535302
     42 C15        -4.7680    2.9080   -3.7210 c3        1 MOL     -0.260842
     43 C16        -3.9860    1.5850   -3.5660 c         1 MOL      0.918811
     44 O7         -3.8840    0.9450   -2.5090 o         1 MOL     -0.777808
     45 O8         -3.2300    1.2130   -4.5400 o         1 MOL     -0.777808
     46 H19        -3.7450    2.9070   -1.1490 hn        1 MOL      0.224811
     47 H20        -5.8120    4.5100   -2.5740 h1        1 MOL      0.062633
     48 H21        -4.0590    3.5130   -4.2850 hc        1 MOL      0.046502
     49 H22        -5.5970    2.6040   -4.3660 hc        1 MOL      0.046502
     50 N4         -6.7910    2.0310   -0.8720 n         1 MOL     -0.168386
     51 C17        -8.0480    1.4380   -0.5030 c3        1 MOL     -0.170700
     52 C18        -8.1940    0.0230   -1.2000 c         1 MOL      0.544282
     53 O9         -9.1790   -0.2310   -1.8930 o         1 MOL     -0.595115
     54 H23        -5.9590    1.8010   -0.3530 hn        1 MOL      0.171904
     55 H24        -8.9240    2.0290   -0.7690 h1        1 MOL      0.077285
     56 H25        -8.0200    1.3290    0.5760 h1        1 MOL      0.077285
     57 N5         -7.1570   -0.8580   -1.0710 n         1 MOL     -0.251821
     58 C19        -7.2030   -2.2280   -1.7110 c3        1 MOL      0.103777
     59 C20        -7.0670   -3.3100   -0.5620 c         1 MOL      0.305606
     60 O10        -7.0640   -4.5570   -0.8440 o         1 MOL     -0.539327
     61 C21        -6.0290   -2.3450   -2.7090 c3        1 MOL     -0.088120
     62 C22        -4.6610   -2.1760   -2.1310 c         1 MOL      0.753498
     63 O11        -3.6960   -2.1810   -2.9310 o         1 MOL     -0.754915
     64 O12        -4.4210   -2.1000   -0.9370 o         1 MOL     -0.754915
     65 H26        -6.3510   -0.6210   -0.5130 hn        1 MOL      0.096832
     66 H27        -8.1080   -2.4440   -2.2790 h1        1 MOL      0.071901
     67 H28        -6.1450   -1.5220   -3.4190 hc        1 MOL      0.029814
     68 H29        -6.1710   -3.2900   -3.2300 hc        1 MOL      0.029814
     69 N6         -7.0680   -2.9130    0.7040 n         1 MOL     -0.248149
     70 C23        -6.9020   -3.9600    1.7850 c3        1 MOL     -0.034253
     71 C24        -5.4150   -4.4410    2.0550 c         1 MOL      0.456922
     72 O13        -5.1940   -5.3190    2.9540 o         1 MOL     -0.585319
     73 H30        -7.0910   -1.9290    0.9430 hn        1 MOL      0.216397
     74 H31        -7.4990   -4.8250    1.5220 h1        1 MOL      0.065859
     75 H32        -7.2410   -3.5890    2.7550 h1        1 MOL      0.065859
     76 N7         -4.4110   -3.9190    1.2970 n         1 MOL     -0.105101
     77 C25        -3.0010   -4.2440    1.4860 c3        1 MOL     -0.105221
     78 C26        -1.9900   -3.0460    1.5140 c         1 MOL      0.669449
     79 O14        -2.3000   -1.8630    1.2040 o         1 MOL     -0.699200
     80 C27        -2.5570   -5.3220    0.4710 c3        1 MOL     -0.121239
     81 C28        -2.6100   -5.0730   -1.0250 c3        1 MOL     -0.180195
     82 C29        -1.5410   -4.1690   -1.6660 c         1 MOL      0.631588
     83 N8         -0.9510   -4.6600   -2.7570 n         1 MOL     -0.760105
     84 O15        -1.1910   -3.0800   -1.3190 o         1 MOL     -0.530813
     85 H33        -4.6300   -3.2020    0.6220 hn        1 MOL      0.170367
     86 H34        -2.8200   -4.7010    2.4590 h1        1 MOL      0.066940
     87 H35        -3.2210   -6.1800    0.5560 hc        1 MOL      0.051380
     88 H36        -1.5510   -5.6960    0.6710 hc        1 MOL      0.051380
     89 H37        -3.5710   -4.6240   -1.2490 hc        1 MOL      0.078285
     90 H38        -2.5000   -6.0180   -1.5450 hc        1 MOL      0.078285
     91 H39        -1.1470   -5.5940   -3.0960 hn        1 MOL      0.342434
     92 H40        -0.2290   -4.1210   -3.2120 hn        1 MOL      0.342434
     93 N9         -0.7840   -3.2760    1.9460 n         1 MOL     -0.349556
     94 C30         0.3910   -2.3570    2.1300 c3        1 MOL      0.014502
     95 C31         1.5600   -2.7590    1.2550 c         1 MOL      0.377593
     96 O16         2.0940   -3.8050    1.5270 o         1 MOL     -0.539657
     97 C32         0.7600   -2.0890    3.5580 c3        1 MOL      0.220863
     98 C33         1.8900   -1.0030    3.6450 c3        1 MOL     -0.226840
     99 C34        -0.3360   -1.6840    4.4930 c3        1 MOL     -0.226840
    100 H41        -0.5890   -4.2220    2.2250 hn        1 MOL      0.242942
    101 H42         0.1230   -1.3550    1.7860 h1        1 MOL      0.106356
    102 H43         1.2230   -2.9970    3.9550 hc        1 MOL     -0.031098
    103 H44         2.7810   -1.4200    3.1800 hc        1 MOL      0.037740
    104 H45         1.6500   -0.0470    3.1720 hc        1 MOL      0.037740
    105 H46         2.2630   -0.8980    4.6640 hc        1 MOL      0.037740
    106 H47        -1.1250   -2.4280    4.4160 hc        1 MOL      0.037740
    107 H48         0.0240   -1.6050    5.5260 hc        1 MOL      0.037740
    108 H49        -0.8060   -0.7370    4.2150 hc        1 MOL      0.037740
    109 N10         1.8880   -1.9820    0.2090 n         1 MOL     -0.085406
    110 C35         3.0010   -2.2140   -0.6330 c3        1 MOL     -0.030082
    111 C36         4.2730   -1.9210    0.1460 c         1 MOL      0.351423
    112 O17         4.2280   -1.1830    1.1340 o         1 MOL     -0.315102
    113 C37         2.7800   -1.2360   -1.8530 c3        1 MOL     -0.090292
    114 C38         3.8030   -1.3950   -2.9630 c         1 MOL      0.578616
    115 N11         3.7710   -0.5100   -3.9490 n         1 MOL     -0.761500
    116 O18         4.6000   -2.3230   -2.9880 o         1 MOL     -0.550200
    117 H50         1.2270   -1.2370    0.0040 hn        1 MOL      0.032348
    118 H51         3.0330   -3.2530   -0.9460 h1        1 MOL      0.064914
    119 H52         2.8600   -0.2300   -1.4310 hc        1 MOL      0.077940
    120 H53         1.7890   -1.3840   -2.2930 hc        1 MOL      0.077940
    121 H54         3.0390    0.1850   -4.0360 hn        1 MOL      0.375547
    122 H55         4.4860   -0.7040   -4.6400 hn        1 MOL      0.375547
    123 N12         5.3980   -2.3330   -0.3670 n         1 MOL     -0.378279
    124 C39         6.6640   -1.7280    0.1610 c3        1 MOL      0.040057
    125 C40         6.6540   -0.1440    0.0220 c         1 MOL      0.569801
    126 O19         7.0310    0.6460    0.8510 o         1 MOL     -0.542121
    127 C41         7.8590   -2.3730   -0.5650 c3        1 MOL     -0.073296
    128 C42         9.1240   -1.7230   -0.0550 ca        1 MOL     -0.088293
    129 C43         9.6470   -2.2990    1.1610 ca        1 MOL     -0.073544
    130 C44         9.8380   -0.6750   -0.7330 ca        1 MOL     -0.073544
    131 C45        10.8310   -1.8970    1.6340 ca        1 MOL     -0.250183
    132 C46        11.0370   -0.2720   -0.1470 ca        1 MOL     -0.250183
    133 C47        11.5330   -0.9200    0.9880 ca        1 MOL      0.353679
    134 O20        12.8100   -0.6270    1.4180 oh        1 MOL     -0.607275
    135 H56         5.4290   -2.8410   -1.2310 hn        1 MOL      0.266784
    136 H57         6.7520   -1.9190    1.2310 h1        1 MOL      0.056050
    137 H58         7.8260   -2.2550   -1.6520 hc        1 MOL      0.052144
    138 H59         7.9400   -3.4280   -0.3330 hc        1 MOL      0.052144
    139 H60         9.0860   -3.0770    1.6720 ha        1 MOL      0.096504
    140 H61         9.4630   -0.2690   -1.6610 ha        1 MOL      0.096504
    141 H62        11.3060   -2.3020    2.5200 ha        1 MOL      0.132891
    142 H63        11.6530    0.4260   -0.6830 ha        1 MOL      0.132891
    143 H64        13.2370    0.0500    0.8980 ho        1 MOL      0.414033
    144 N13         6.1660    0.2990   -1.1760 n         1 MOL      0.003718
    145 C48         6.1690    1.7380   -1.5700 c3        1 MOL     -0.161221
    146 C49         5.0930    2.5570   -0.7210 c         1 MOL      0.326519
    147 O21         5.0450    3.7930   -0.7400 o         1 MOL     -0.514447
    148 C50         6.0450    1.8700   -3.0810 c3        1 MOL      0.116430
    149 C51         6.9430    1.0020   -3.9900 c3        1 MOL     -0.443560
    150 C52         8.4530    1.3260   -3.8210 c         1 MOL      0.829773
    151 O22         8.9070    2.4530   -3.5680 o         1 MOL     -0.725440
    152 O23         9.2720    0.3920   -4.0590 o         1 MOL     -0.725440
    153 H65         6.0020   -0.3800   -1.9120 hn        1 MOL      0.116006
    154 H66         7.1610    2.1350   -1.3310 h1        1 MOL      0.129984
    155 H67         6.2230    2.9350   -3.2820 hc        1 MOL      0.010234
    156 H68         4.9980    1.8010   -3.3650 hc        1 MOL      0.010234
    157 H69         6.6810    1.2560   -5.0180 hc        1 MOL      0.065302
    158 H70         6.7070   -0.0630   -3.9860 hc        1 MOL      0.065302
    159 N14         4.2950    1.8470    0.0790 n         1 MOL      0.063360
    160 C53         3.5180    2.4280    1.1700 c3        1 MOL     -0.003151
    161 C54         4.0080    2.1260    2.5980 c         1 MOL      0.387065
    162 O24         3.8850    2.9010    3.5140 o         1 MOL     -0.563269
    163 C55         2.0690    1.8040    1.0600 c3        1 MOL      0.120003
    164 C56         1.2880    2.2630   -0.2080 c3        1 MOL     -0.154846
    165 C57        -0.0070    1.5220   -0.3170 c         1 MOL      0.720283
    166 O25        -1.1250    2.0360   -0.6480 o         1 MOL     -0.687431
    167 O26        -0.0740    0.2530   -0.2790 o         1 MOL     -0.687431
    168 H71         4.3010    0.8530   -0.0320 hn        1 MOL     -0.126654
    169 H72         3.3740    3.5040    1.1260 h1        1 MOL      0.072587
    170 H73         1.4770    1.9960    1.9540 hc        1 MOL      0.037897
    171 H74         2.2190    0.7430    0.8560 hc        1 MOL      0.037897
    172 H75         1.9330    2.0660   -1.0610 hc        1 MOL      0.010564
    173 H76         1.0740    3.3260   -0.1730 hc        1 MOL      0.010564
    174 N15         4.7070    1.0070    2.7240 n         1 MOL      0.053378
    175 C58         5.4700    0.6750    3.9490 c3        1 MOL     -0.191118
    176 H77         5.2670   -0.3570    4.2340 h1        1 MOL      0.071321
    177 H78         6.5360    0.7970    3.7570 h1        1 MOL      0.071321
    178 H79         5.1680    1.3410    4.7570 h1        1 MOL      0.071321
    179 H80         4.7300    0.4410    1.8920 hn        1 MOL     -0.037543
    180 Ca1        -2.4540   -0.5480   -1.0530 Ca        1 MOL      1.748678
    181 O27        -0.9060   -0.0000   -3.3030 oh        1 MOL     -0.844845
    182 H81        -1.4710    0.5850   -3.8010 ho        1 MOL      0.396149
    183 H82        -0.2470   -0.3020   -3.9330 ho        1 MOL      0.396149
@<TRIPOS>BOND
     1    1    2 1   
     2    1    4 1   
     3    1    5 1   
     4    1    6 1   
     5    2    3 2   
     6    2    7 1   
     7    7    8 1   
     8    7   15 1   
     9    8    9 1   
    10    8   11 1   
    11    8   16 1   
    12    9   10 2   
    13    9   19 1   
    14   11   12 1   
    15   11   17 1   
    16   11   18 1   
    17   12   13 1   
    18   12   14 1   
    19   19   20 1   
    20   19   27 1   
    21   20   21 1   
    22   20   23 1   
    23   20   28 1   
    24   21   22 2   
    25   21   38 1   
    26   23   24 1   
    27   23   25 1   
    28   23   29 1   
    29   24   26 1   
    30   24   30 1   
    31   24   31 1   
    32   25   32 1   
    33   25   33 1   
    34   25   34 1   
    35   26   35 1   
    36   26   36 1   
    37   26   37 1   
    38   38   39 1   
    39   38   46 1   
    40   39   40 1   
    41   39   42 1   
    42   39   47 1   
    43   40   41 2   
    44   40   50 1   
    45   42   43 1   
    46   42   48 1   
    47   42   49 1   
    48   43   44 1   
    49   43   45 1   
    50   50   51 1   
    51   50   54 1   
    52   51   52 1   
    53   51   55 1   
    54   51   56 1   
    55   52   53 2   
    56   52   57 1   
    57   57   58 1   
    58   57   65 1   
    59   58   59 1   
    60   58   61 1   
    61   58   66 1   
    62   59   60 2   
    63   59   69 1   
    64   61   62 1   
    65   61   67 1   
    66   61   68 1   
    67   62   63 1   
    68   62   64 1   
    69   69   70 1   
    70   69   73 1   
    71   70   71 1   
    72   70   74 1   
    73   70   75 1   
    74   71   72 2   
    75   71   76 1   
    76   76   77 1   
    77   76   85 1   
    78   77   78 1   
    79   77   80 1   
    80   77   86 1   
    81   78   79 2   
    82   78   93 1   
    83   80   81 1   
    84   80   87 1   
    85   80   88 1   
    86   81   82 1   
    87   81   89 1   
    88   81   90 1   
    89   82   83 1   
    90   82   84 2   
    91   83   91 1   
    92   83   92 1   
    93   93   94 1   
    94   93  100 1   
    95   94   95 1   
    96   94   97 1   
    97   94  101 1   
    98   95   96 2   
    99   95  109 1   
   100   97   98 1   
   101   97   99 1   
   102   97  102 1   
   103   98  103 1   
   104   98  104 1   
   105   98  105 1   
   106   99  106 1   
   107   99  107 1   
   108   99  108 1   
   109  109  110 1   
   110  109  117 1   
   111  110  111 1   
   112  110  113 1   
   113  110  118 1   
   114  111  112 2   
   115  111  123 1   
   116  113  114 1   
   117  113  119 1   
   118  113  120 1   
   119  114  115 1   
   120  114  116 2   
   121  115  121 1   
   122  115  122 1   
   123  123  124 1   
   124  123  135 1   
   125  124  125 1   
   126  124  127 1   
   127  124  136 1   
   128  125  126 2   
   129  125  144 1   
   130  127  128 1   
   131  127  137 1   
   132  127  138 1   
   133  128  129 ar  
   134  128  130 ar  
   135  129  131 ar  
   136  129  139 1   
   137  130  132 ar  
   138  130  140 1   
   139  131  133 ar  
   140  131  141 1   
   141  132  133 ar  
   142  132  142 1   
   143  133  134 1   
   144  134  143 1   
   145  144  145 1   
   146  144  153 1   
   147  145  146 1   
   148  145  148 1   
   149  145  154 1   
   150  146  147 2   
   151  146  159 1   
   152  148  149 1   
   153  148  155 1   
   154  148  156 1   
   155  149  150 1   
   156  149  157 1   
   157  149  158 1   
   158  150  151 1   
   159  150  152 1   
   160  159  160 1   
   161  159  168 1   
   162  160  161 1   
   163  160  163 1   
   164  160  169 1   
   165  161  162 2   
   166  161  174 1   
   167  163  164 1   
   168  163  170 1   
   169  163  171 1   
   170  164  165 1   
   171  164  172 1   
   172  164  173 1   
   173  165  166 1   
   174  165  167 1   
   175  174  175 1   
   176  174  179 1   
   177  175  176 1   
   178  175  177 1   
   179  175  178 1   
   180  181  182 1   
   181  181  183 1   
@<TRIPOS>SUBSTRUCTURE
     1 MOL         1 TEMP              0 ****  ****    0 ROOT
