@<TRIPOS>MOLECULE
MOL
  189   185     1     0     0
SMALL
resp


@<TRIPOS>ATOM
      1 C1         -0.6640    2.6270    6.1200 c3        1 MOL     -0.268192
      2 C2         -0.8910    2.3870    4.6180 c         1 MOL      0.659874
      3 O1         -0.1810    3.0530    3.8670 o         1 MOL     -0.604155
      4 H1         -0.5460    1.6700    6.6270 hc        1 MOL      0.066556
      5 H2          0.2370    3.2260    6.2610 hc        1 MOL      0.066556
      6 H3         -1.5210    3.1550    6.5380 hc        1 MOL      0.066556
      7 N1         -1.7490    1.4520    4.1860 n         1 MOL     -0.438056
      8 C3         -2.2910    1.3150    2.8460 c3        1 MOL      0.113168
      9 C4         -2.7730    2.7410    2.2730 c         1 MOL      0.386867
     10 O2         -3.7850    3.3200    2.7030 o         1 MOL     -0.512329
     11 C5         -3.3100    0.2160    2.7880 c3        1 MOL     -0.520442
     12 C6         -4.2690    0.1820    1.5740 c         1 MOL      0.948393
     13 O3         -5.3980   -0.2980    1.7300 o         1 MOL     -0.695989
     14 O4         -3.7860    0.4720    0.4320 o         1 MOL     -0.695989
     15 H4         -2.2880    0.9490    4.8660 hn        1 MOL      0.282246
     16 H5         -1.4180    0.9700    2.2870 h1        1 MOL      0.027267
     17 H6         -4.0140    0.4540    3.5950 hc        1 MOL      0.113944
     18 H7         -2.8140   -0.7240    3.0270 hc        1 MOL      0.113944
     19 N2         -2.0440    3.3350    1.2310 n         1 MOL     -0.006567
     20 C7         -2.2130    4.7570    0.8240 c3        1 MOL      0.007902
     21 C8         -3.4980    5.0810   -0.0600 c         1 MOL      0.483768
     22 O5         -3.8860    6.2330   -0.1960 o         1 MOL     -0.551369
     23 C9         -0.8410    5.1290    0.1660 c3        1 MOL     -0.151317
     24 C10         0.1610    5.6580    1.2000 c3        1 MOL      0.198804
     25 C11         1.5520    5.7370    0.5640 c3        1 MOL      0.093580
     26 C12         2.5630    6.0490    1.7070 c3        1 MOL      0.001390
     27 N3          3.7990    6.5080    1.0100 n4        1 MOL     -0.346275
     28 H8         -1.3080    2.7860    0.8010 hn        1 MOL      0.046194
     29 H9         -2.3520    5.4090    1.6900 h1        1 MOL      0.038852
     30 H10        -1.0070    5.8490   -0.6340 hc        1 MOL      0.037267
     31 H11        -0.5590    4.1970   -0.3120 hc        1 MOL      0.037267
     32 H12         0.1310    5.0360    2.0990 hc        1 MOL     -0.032163
     33 H13        -0.1090    6.6550    1.5510 hc        1 MOL     -0.032163
     34 H14         1.5610    6.5490   -0.1640 hc        1 MOL     -0.028693
     35 H15         1.7750    4.7850    0.0770 hc        1 MOL     -0.028693
     36 H16         2.7070    5.1570    2.3090 hx        1 MOL      0.089239
     37 H17         2.1550    6.9220    2.2150 hx        1 MOL      0.089239
     38 H18         3.5320    7.1570    0.2900 hn        1 MOL      0.314738
     39 H19         4.4070    6.9410    1.6950 hn        1 MOL      0.314738
     40 H20         4.3580    5.7360    0.6700 hn        1 MOL      0.314738
     41 N4         -4.0520    4.0350   -0.6870 n         1 MOL     -0.266920
     42 C13        -5.0350    4.0950   -1.8090 c3        1 MOL      0.029307
     43 C14        -6.1780    3.0900   -1.7340 c         1 MOL      0.389179
     44 O6         -7.0230    2.9430   -2.6330 o         1 MOL     -0.505525
     45 C15        -4.2850    4.0310   -3.1720 c3        1 MOL     -0.275062
     46 C16        -3.3010    2.8520   -3.4010 c         1 MOL      0.821214
     47 O7         -3.2790    1.8860   -2.6020 o         1 MOL     -0.670539
     48 O8         -2.6720    2.8040   -4.4570 o         1 MOL     -0.670539
     49 H21        -3.6720    3.1100   -0.5390 hn        1 MOL      0.076495
     50 H22        -5.4130    5.1060   -1.7230 h1        1 MOL      0.114786
     51 H23        -3.8080    4.9830   -3.4350 hc        1 MOL      0.073771
     52 H24        -4.9710    3.8080   -3.9810 hc        1 MOL      0.073771
     53 N5         -6.2850    2.3540   -0.6120 n         1 MOL     -0.249814
     54 C17        -7.4040    1.5370   -0.1650 c3        1 MOL     -0.060445
     55 C18        -7.6400    0.2710   -1.0180 c         1 MOL      0.492217
     56 O9         -8.7350   -0.0530   -1.2340 o         1 MOL     -0.569707
     57 H25        -5.4890    2.4140    0.0130 hn        1 MOL      0.174522
     58 H26        -8.3070    2.1410   -0.1930 h1        1 MOL      0.077820
     59 H27        -7.3660    1.2330    0.8830 h1        1 MOL      0.077820
     60 N6         -6.6730   -0.2530   -1.7410 n         1 MOL     -0.179894
     61 C19        -6.7550   -1.5580   -2.3680 c3        1 MOL     -0.123595
     62 C20        -6.7010   -2.6610   -1.3240 c         1 MOL      0.415725
     63 O10        -6.8580   -3.8530   -1.7130 o         1 MOL     -0.527298
     64 C21        -5.7360   -1.7040   -3.4690 c3        1 MOL     -0.215386
     65 C22        -4.3440   -1.4430   -2.8310 c         1 MOL      0.768986
     66 O11        -3.4670   -0.9920   -3.5940 o         1 MOL     -0.747124
     67 O12        -4.0140   -1.6630   -1.6530 o         1 MOL     -0.747124
     68 H28        -5.7390    0.0670   -1.5200 hn        1 MOL      0.201862
     69 H29        -7.7510   -1.5280   -2.8250 h1        1 MOL      0.145140
     70 H30        -5.9880   -0.8950   -4.1520 hc        1 MOL      0.092491
     71 H31        -5.8560   -2.6250   -4.0400 hc        1 MOL      0.092491
     72 N7         -6.5220   -2.3460    0.0120 n         1 MOL     -0.157141
     73 C23        -6.6450   -3.3330    1.0720 c3        1 MOL     -0.290082
     74 C24        -5.3720   -4.1340    1.2960 c         1 MOL      0.574165
     75 O13        -5.3600   -5.1800    1.8880 o         1 MOL     -0.565678
     76 H32        -6.2550   -1.4030    0.2840 hn        1 MOL      0.231362
     77 H33        -7.3870   -4.0940    0.8100 h1        1 MOL      0.129171
     78 H34        -6.8270   -2.8150    2.0080 h1        1 MOL      0.129171
     79 N8         -4.2320   -3.6170    0.8050 n         1 MOL     -0.050975
     80 C25        -2.9620   -4.3150    0.7330 c3        1 MOL     -0.473458
     81 C26        -1.8070   -3.2970    0.9210 c         1 MOL      0.801870
     82 O14        -1.9120   -2.1400    0.6470 o         1 MOL     -0.620680
     83 C27        -2.7740   -5.1210   -0.5940 c3        1 MOL      0.595699
     84 C28        -3.5790   -6.4900   -0.6720 c3        1 MOL     -0.416237
     85 O15        -3.0240   -4.3590   -1.7570 oh        1 MOL     -0.649403
     86 H35        -4.1910   -2.6870    0.4290 hn        1 MOL      0.051346
     87 H36        -2.7930   -5.0100    1.5520 h1        1 MOL      0.129278
     88 H37        -1.7210   -5.3740   -0.6790 h1        1 MOL     -0.065854
     89 H38        -3.4620   -3.5440   -1.5230 ho        1 MOL      0.412239
     90 H39        -4.6060   -6.3060   -0.3610 hc        1 MOL      0.104481
     91 H40        -3.5370   -6.8540   -1.7020 hc        1 MOL      0.104481
     92 H41        -3.1130   -7.2060   -0.0040 hc        1 MOL      0.104481
     93 N9         -0.7640   -3.7530    1.5350 n         1 MOL     -0.551474
     94 C29         0.4780   -3.0000    1.7630 c3        1 MOL      0.060570
     95 C30         1.6390   -3.4600    0.7870 c         1 MOL      0.500059
     96 O16         2.0910   -4.5660    0.8890 o         1 MOL     -0.521635
     97 C31         0.7500   -2.8500    3.2950 c3        1 MOL      0.019261
     98 C32        -0.2430   -1.8770    4.0080 c3        1 MOL      0.035293
     99 C33         2.2610   -2.5880    3.5360 c3        1 MOL     -0.179192
    100 C34        -0.0610   -1.9330    5.5340 c3        1 MOL     -0.305946
    101 H42        -0.7320   -4.7010    1.8870 hn        1 MOL      0.292619
    102 H43         0.2540   -1.9780    1.4700 h1        1 MOL      0.048897
    103 H44         0.5200   -3.8020    3.7540 hc        1 MOL      0.033526
    104 H45        -1.1980   -2.1700    3.5740 hc        1 MOL      0.048516
    105 H46        -0.0750   -0.8680    3.6290 hc        1 MOL      0.048516
    106 H47         2.9920   -3.0050    2.8430 hc        1 MOL      0.036981
    107 H48         2.4050   -1.5230    3.6730 hc        1 MOL      0.036981
    108 H49         2.5260   -2.9770    4.5170 hc        1 MOL      0.036981
    109 H50         0.9390   -1.5390    5.7150 hc        1 MOL      0.077600
    110 H51        -0.8290   -1.3930    6.0850 hc        1 MOL      0.077600
    111 H52        -0.0690   -2.9650    5.8530 hc        1 MOL      0.077600
    112 N10         2.1420   -2.5390   -0.1130 n         1 MOL     -0.357222
    113 C35         3.4130   -2.8000   -0.8430 c3        1 MOL      0.093624
    114 C36         4.7030   -2.6540   -0.0290 c         1 MOL      0.290169
    115 O17         4.6400   -2.2210    1.1150 o         1 MOL     -0.253635
    116 C37         3.5300   -1.9520   -2.1490 c3        1 MOL      0.077128
    117 C38         2.2520   -1.7430   -2.8960 c3        1 MOL     -0.351355
    118 O18         4.1270   -0.7350   -1.8930 oh        1 MOL     -0.317739
    119 H53         1.7320   -1.6260   -0.0540 hn        1 MOL      0.292931
    120 H54         3.3380   -3.8540   -1.1120 h1        1 MOL      0.070910
    121 H55         4.2390   -2.4250   -2.8370 h1        1 MOL      0.003220
    122 H56         4.0360   -0.1630   -2.6540 ho        1 MOL      0.330794
    123 H57         1.8640   -2.7350   -3.0920 hc        1 MOL      0.110368
    124 H58         1.5510   -1.1890   -2.2630 hc        1 MOL      0.110368
    125 H59         2.4440   -1.2520   -3.8520 hc        1 MOL      0.110368
    126 N11         5.8550   -3.0390   -0.5950 n         1 MOL     -0.381730
    127 C39         7.2130   -2.6560   -0.1370 c3        1 MOL      0.029556
    128 C40         7.3220   -1.1330    0.1330 c         1 MOL      0.277723
    129 O19         7.8710   -0.8230    1.2030 o         1 MOL     -0.499997
    130 C41         8.2080   -2.9830   -1.2800 c3        1 MOL      0.203172
    131 C42         8.4870   -4.4780   -1.4490 c3        1 MOL     -0.382931
    132 O20         7.7430   -2.3630   -2.4880 oh        1 MOL     -0.667025
    133 H60         5.8620   -3.5590   -1.4540 hn        1 MOL      0.285207
    134 H61         7.4320   -3.2170    0.7750 h1        1 MOL      0.121623
    135 H62         9.1140   -2.5470   -0.8670 h1        1 MOL      0.074348
    136 H63         8.0110   -2.9270   -3.2120 ho        1 MOL      0.439794
    137 H64         9.5390   -4.6980   -1.6500 hc        1 MOL      0.119187
    138 H65         8.2430   -4.9450   -0.4940 hc        1 MOL      0.119187
    139 H66         7.7990   -4.8350   -2.2110 hc        1 MOL      0.119187
    140 N12         6.9160   -0.2430   -0.6860 n         1 MOL     -0.050324
    141 C43         7.0980    1.1850   -0.4680 c3        1 MOL     -0.107698
    142 C44         6.0970    1.6470    0.6260 c         1 MOL      0.431831
    143 O21         6.2830    2.7180    1.2700 o         1 MOL     -0.557749
    144 C45         6.8580    1.8450   -1.8340 c3        1 MOL     -0.044777
    145 C46         7.8170    1.3730   -2.9870 c3        1 MOL     -0.049332
    146 C47         7.3470    2.0630   -4.2740 c3        1 MOL      0.016296
    147 C48         8.3380    1.6660   -5.4030 c3        1 MOL     -0.067316
    148 N13         9.7000    2.1910   -5.2620 n4        1 MOL     -0.164539
    149 H67         6.3430   -0.5640   -1.4470 hn        1 MOL      0.129699
    150 H68         8.0660    1.5050   -0.0730 h1        1 MOL      0.133922
    151 H69         6.9970    2.9120   -1.6230 hc        1 MOL      0.018277
    152 H70         5.7910    1.7290   -2.0510 hc        1 MOL      0.018277
    153 H71         7.6240    0.3090   -3.1650 hc        1 MOL      0.035565
    154 H72         8.8610    1.5100   -2.6760 hc        1 MOL      0.035565
    155 H73         7.2790    3.1460   -4.1100 hc        1 MOL      0.045656
    156 H74         6.3160    1.8150   -4.5540 hc        1 MOL      0.045656
    157 H75         7.9320    1.9800   -6.3700 hx        1 MOL      0.094352
    158 H76         8.4400    0.5830   -5.3930 hx        1 MOL      0.094352
    159 H77         9.7500    3.1960   -5.1590 hn        1 MOL      0.235985
    160 H78        10.2650    1.7600   -4.5570 hn        1 MOL      0.235985
    161 H79        10.1920    2.0380   -6.1350 hn        1 MOL      0.235985
    162 N14         5.0420    0.8950    0.8880 n         1 MOL     -0.188212
    163 C49         4.1160    1.2590    2.0170 c3        1 MOL     -0.146439
    164 C50         4.5210    0.6560    3.3910 c         1 MOL      0.574318
    165 O22         4.4260    1.2600    4.3760 o         1 MOL     -0.548784
    166 C51         2.6780    0.7680    1.6100 c3        1 MOL      0.104059
    167 C52         1.9850    1.3560    0.3290 c3        1 MOL     -0.007687
    168 C53         0.6240    0.8270    0.0350 c         1 MOL      0.690565
    169 O23         0.4300   -0.3620   -0.2520 o         1 MOL     -0.641138
    170 O24        -0.3700    1.5950   -0.1650 o         1 MOL     -0.641138
    171 H80         4.8930    0.0440    0.3670 hn        1 MOL      0.121345
    172 H81         4.0230    2.3310    2.1910 h1        1 MOL      0.119508
    173 H82         1.9870    0.8730    2.4460 hc        1 MOL     -0.008021
    174 H83         2.6510   -0.3010    1.3850 hc        1 MOL     -0.008021
    175 H84         2.6160    1.1880   -0.5440 hc        1 MOL     -0.046977
    176 H85         1.8370    2.4170    0.5390 hc        1 MOL     -0.046977
    177 N15         5.0810   -0.5730    3.2840 n         1 MOL     -0.132762
    178 C54         5.7760   -1.3660    4.3910 c3        1 MOL     -0.268080
    179 H86         5.1740   -2.2380    4.6450 h1        1 MOL      0.108594
    180 H87         6.7580   -1.6910    4.0450 h1        1 MOL      0.108594
    181 H88         5.8910   -0.7350    5.2730 h1        1 MOL      0.108594
    182 H89         5.1280   -0.9780    2.3650 hn        1 MOL      0.096911
    183 Ca1        -1.9810   -0.2280   -1.4500 Ca        1 MOL      1.704505
    184 O25        -0.4230    0.9680   -3.3080 oh        1 MOL     -0.863095
    185 H90        -0.9230    1.6040   -3.8160 ho        1 MOL      0.395057
    186 H91         0.1320    0.5280   -3.9510 ho        1 MOL      0.395057
    187 O26        -0.8960   -2.5370   -2.3520 oh        1 MOL     -0.863095
    188 H92        -0.7110   -2.5050   -3.2940 ho        1 MOL      0.395057
    189 H93        -1.4680   -3.2940   -2.2540 ho        1 MOL      0.395057
@<TRIPOS>BOND
     1    1    2 1   
     2    1    4 1   
     3    1    5 1   
     4    1    6 1   
     5    2    3 2   
     6    2    7 1   
     7    7    8 1   
     8    7   15 1   
     9    8    9 1   
    10    8   11 1   
    11    8   16 1   
    12    9   10 2   
    13    9   19 1   
    14   11   12 1   
    15   11   17 1   
    16   11   18 1   
    17   12   13 1   
    18   12   14 1   
    19   19   20 1   
    20   19   28 1   
    21   20   21 1   
    22   20   23 1   
    23   20   29 1   
    24   21   22 2   
    25   21   41 1   
    26   23   24 1   
    27   23   30 1   
    28   23   31 1   
    29   24   25 1   
    30   24   32 1   
    31   24   33 1   
    32   25   26 1   
    33   25   34 1   
    34   25   35 1   
    35   26   27 1   
    36   26   36 1   
    37   26   37 1   
    38   27   38 1   
    39   27   39 1   
    40   27   40 1   
    41   41   42 1   
    42   41   49 1   
    43   42   43 1   
    44   42   45 1   
    45   42   50 1   
    46   43   44 2   
    47   43   53 1   
    48   45   46 1   
    49   45   51 1   
    50   45   52 1   
    51   46   47 1   
    52   46   48 1   
    53   53   54 1   
    54   53   57 1   
    55   54   55 1   
    56   54   58 1   
    57   54   59 1   
    58   55   56 2   
    59   55   60 1   
    60   60   61 1   
    61   60   68 1   
    62   61   62 1   
    63   61   64 1   
    64   61   69 1   
    65   62   63 2   
    66   62   72 1   
    67   64   65 1   
    68   64   70 1   
    69   64   71 1   
    70   65   66 1   
    71   65   67 1   
    72   72   73 1   
    73   72   76 1   
    74   73   74 1   
    75   73   77 1   
    76   73   78 1   
    77   74   75 2   
    78   74   79 1   
    79   79   80 1   
    80   79   86 1   
    81   80   81 1   
    82   80   83 1   
    83   80   87 1   
    84   81   82 2   
    85   81   93 1   
    86   83   84 1   
    87   83   85 1   
    88   83   88 1   
    89   84   90 1   
    90   84   91 1   
    91   84   92 1   
    92   85   89 1   
    93   93   94 1   
    94   93  101 1   
    95   94   95 1   
    96   94   97 1   
    97   94  102 1   
    98   95   96 2   
    99   95  112 1   
   100   97   98 1   
   101   97   99 1   
   102   97  103 1   
   103   98  100 1   
   104   98  104 1   
   105   98  105 1   
   106   99  106 1   
   107   99  107 1   
   108   99  108 1   
   109  100  109 1   
   110  100  110 1   
   111  100  111 1   
   112  112  113 1   
   113  112  119 1   
   114  113  114 1   
   115  113  116 1   
   116  113  120 1   
   117  114  115 2   
   118  114  126 1   
   119  116  117 1   
   120  116  118 1   
   121  116  121 1   
   122  117  123 1   
   123  117  124 1   
   124  117  125 1   
   125  118  122 1   
   126  126  127 1   
   127  126  133 1   
   128  127  128 1   
   129  127  130 1   
   130  127  134 1   
   131  128  129 2   
   132  128  140 1   
   133  130  131 1   
   134  130  132 1   
   135  130  135 1   
   136  131  137 1   
   137  131  138 1   
   138  131  139 1   
   139  132  136 1   
   140  140  141 1   
   141  140  149 1   
   142  141  142 1   
   143  141  144 1   
   144  141  150 1   
   145  142  143 2   
   146  142  162 1   
   147  144  145 1   
   148  144  151 1   
   149  144  152 1   
   150  145  146 1   
   151  145  153 1   
   152  145  154 1   
   153  146  147 1   
   154  146  155 1   
   155  146  156 1   
   156  147  148 1   
   157  147  157 1   
   158  147  158 1   
   159  148  159 1   
   160  148  160 1   
   161  148  161 1   
   162  162  163 1   
   163  162  171 1   
   164  163  164 1   
   165  163  166 1   
   166  163  172 1   
   167  164  165 2   
   168  164  177 1   
   169  166  167 1   
   170  166  173 1   
   171  166  174 1   
   172  167  168 1   
   173  167  175 1   
   174  167  176 1   
   175  168  169 1   
   176  168  170 1   
   177  177  178 1   
   178  177  182 1   
   179  178  179 1   
   180  178  180 1   
   181  178  181 1   
   182  184  185 1   
   183  184  186 1   
   184  187  188 1   
   185  187  189 1   
@<TRIPOS>SUBSTRUCTURE
     1 MOL         1 TEMP              0 ****  ****    0 ROOT
