@<TRIPOS>MOLECULE
MOL
  179   176     1     0     0
SMALL
resp


@<TRIPOS>ATOM
      1 C1          1.5510    2.0890    6.8980 c3        1 MOL     -0.295140
      2 C2          1.4610    1.9120    5.3830 c         1 MOL      0.765596
      3 O1          2.4340    1.6960    4.7520 o         1 MOL     -0.563577
      4 H1          1.9190    1.1680    7.3500 hc        1 MOL      0.071015
      5 H2          2.2360    2.9050    7.1290 hc        1 MOL      0.071015
      6 H3          0.5630    2.3200    7.2970 hc        1 MOL      0.071015
      7 N1          0.2770    2.0590    4.8090 n         1 MOL     -0.616169
      8 C3          0.0670    2.1140    3.3500 c3        1 MOL     -0.211048
      9 C4          0.4610    3.4390    2.7760 c         1 MOL      0.804804
     10 O2          0.1830    4.4880    3.4330 o         1 MOL     -0.564693
     11 C5         -1.4330    1.8770    3.0650 c3        1 MOL     -0.190403
     12 C6         -1.6970    1.8040    1.5450 c         1 MOL      0.872703
     13 O3         -2.6750    1.1180    1.1610 o         1 MOL     -0.850073
     14 O4         -0.8500    2.1930    0.7030 o         1 MOL     -0.850073
     15 H4         -0.4230    2.4980    5.3780 hn        1 MOL      0.344131
     16 H5          0.6650    1.3660    2.8440 h1        1 MOL      0.144869
     17 H6         -2.0980    2.6430    3.4780 hc        1 MOL      0.075562
     18 H7         -1.6180    0.8820    3.4630 hc        1 MOL      0.075562
     19 N2          1.0990    3.5600    1.5640 n         1 MOL     -0.606699
     20 C7          1.3610    4.8260    0.9800 c3        1 MOL     -0.070732
     21 C8          0.1150    5.5210    0.4810 c         1 MOL      0.426182
     22 O5          0.0810    6.7550    0.4510 o         1 MOL     -0.580938
     23 C9          2.3510    4.7050   -0.1240 c3        1 MOL      0.228491
     24 C10         2.8890    5.9480   -0.7130 c3        1 MOL     -0.358345
     25 C11         3.9570    5.6770   -1.7520 c3        1 MOL      0.142520
     26 C12         4.1780    7.0120   -2.4770 c3        1 MOL     -0.076381
     27 N3          5.1420    6.8170   -3.5360 n4        1 MOL     -0.209996
     28 H8          1.2650    2.7180    1.0130 hn        1 MOL      0.336853
     29 H9          1.8220    5.4720    1.7230 h1        1 MOL      0.106904
     30 H10         1.8210    4.0860   -0.8510 hc        1 MOL      0.019989
     31 H11         3.2200    4.1150    0.1660 hc        1 MOL      0.019989
     32 H12         3.4000    6.4990    0.0770 hc        1 MOL      0.098623
     33 H13         2.1390    6.6070   -1.1370 hc        1 MOL      0.098623
     34 H14         3.5300    4.9480   -2.4350 hc        1 MOL      0.003811
     35 H15         4.8530    5.2520   -1.3030 hc        1 MOL      0.003811
     36 H16         4.4930    7.7620   -1.7490 hx        1 MOL      0.112861
     37 H17         3.1960    7.2340   -2.9050 hx        1 MOL      0.112861
     38 H18         6.0090    6.5710   -3.0700 hn        1 MOL      0.288186
     39 H19         4.9830    6.0550   -4.1850 hn        1 MOL      0.288186
     40 H20         5.3970    7.5980   -4.1240 hn        1 MOL      0.288186
     41 N4         -0.8530    4.8060   -0.0760 n         1 MOL     -0.107416
     42 C13        -2.0700    5.4020   -0.7860 c3        1 MOL      0.038500
     43 C14        -3.4370    5.0090   -0.2540 c         1 MOL      0.391573
     44 O6         -4.4610    5.5270   -0.7310 o         1 MOL     -0.508529
     45 C15        -1.8860    5.1040   -2.2840 c3        1 MOL     -0.352537
     46 C16        -1.8820    3.6120   -2.6260 c         1 MOL      0.826273
     47 O7         -1.4890    3.2760   -3.7630 o         1 MOL     -0.726174
     48 O8         -2.3170    2.7540   -1.8350 o         1 MOL     -0.726174
     49 H21        -0.8630    3.8050   -0.1290 hn        1 MOL      0.201100
     50 H22        -2.0090    6.4830   -0.6220 h1        1 MOL      0.101923
     51 H23        -0.9040    5.4760   -2.5890 hc        1 MOL      0.092575
     52 H24        -2.5930    5.6760   -2.8840 hc        1 MOL      0.092575
     53 N5         -3.5020    4.1340    0.7300 n         1 MOL     -0.293032
     54 C17        -4.8300    3.7050    1.3380 c3        1 MOL      0.146190
     55 C18        -5.7340    2.8800    0.5160 c         1 MOL      0.291038
     56 O9         -6.9780    3.0960    0.5320 o         1 MOL     -0.541008
     57 H25        -2.6600    3.7380    1.1220 hn        1 MOL      0.132739
     58 H26        -5.4230    4.5180    1.7430 h1        1 MOL      0.043241
     59 H27        -4.5480    3.2090    2.2590 h1        1 MOL      0.043241
     60 N6         -5.2500    2.2070   -0.5540 n         1 MOL     -0.015883
     61 C19        -6.1140    1.4440   -1.4670 c3        1 MOL     -0.099772
     62 C20        -6.6100    0.1440   -0.7640 c         1 MOL      0.403876
     63 O10        -7.3860   -0.6240   -1.2950 o         1 MOL     -0.528198
     64 C21        -5.4420    1.0200   -2.8010 c3        1 MOL     -0.251490
     65 C22        -4.4470   -0.1480   -2.6770 c         1 MOL      0.658157
     66 N7         -4.3570   -0.9460   -3.6940 n         1 MOL     -0.828663
     67 O11        -3.8240   -0.3810   -1.6340 o         1 MOL     -0.624779
     68 H28        -4.2450    2.2300   -0.6630 hn        1 MOL      0.167487
     69 H29        -6.9530    2.0870   -1.7300 h1        1 MOL      0.153505
     70 H30        -4.9290    1.8290   -3.3250 hc        1 MOL      0.105453
     71 H31        -6.2790    0.6650   -3.4020 hc        1 MOL      0.105453
     72 H32        -4.9070   -0.7340   -4.5120 hn        1 MOL      0.385088
     73 H33        -3.6790   -1.6950   -3.6950 hn        1 MOL      0.385088
     74 N8         -6.1390   -0.1120    0.4430 n         1 MOL     -0.107577
     75 C23        -6.5270   -1.1680    1.3270 c3        1 MOL     -0.383235
     76 C24        -5.4970   -2.3210    1.4890 c         1 MOL      0.590112
     77 O12        -5.7310   -3.3200    2.1860 o         1 MOL     -0.535910
     78 H34        -5.4940    0.5060    0.9050 hn        1 MOL      0.233078
     79 H35        -7.4750   -1.5800    0.9750 h1        1 MOL      0.164872
     80 H36        -6.7320   -0.6950    2.2830 h1        1 MOL      0.164872
     81 N9         -4.3730   -2.2570    0.7540 n         1 MOL     -0.531101
     82 C25        -3.4150   -3.3760    0.8080 c3        1 MOL      0.232575
     83 C26        -1.9560   -2.7550    0.8470 c         1 MOL      0.434878
     84 O13        -1.7990   -1.7420    0.2290 o         1 MOL     -0.486831
     85 C27        -3.5530   -4.2160   -0.4800 c3        1 MOL      0.070866
     86 C28        -4.9900   -4.7260   -0.6870 ca        1 MOL     -0.255608
     87 C29        -5.4500   -5.8760   -0.0580 ca        1 MOL      0.082658
     88 C30        -5.8130   -4.0420   -1.5390 ca        1 MOL      0.082658
     89 C31        -6.7490   -6.3510   -0.2370 ca        1 MOL     -0.486552
     90 C32        -7.0970   -4.5390   -1.7950 ca        1 MOL     -0.486552
     91 C33        -7.5360   -5.6390   -1.0780 ca        1 MOL      0.593324
     92 O14        -8.8240   -5.9440   -1.2510 oh        1 MOL     -0.547498
     93 H37        -4.1520   -1.4600    0.1620 hn        1 MOL      0.376121
     94 H38        -3.5860   -4.0700    1.6260 h1        1 MOL      0.033721
     95 H39        -2.8880   -5.0480   -0.2580 hc        1 MOL     -0.023805
     96 H40        -3.2650   -3.6410   -1.3580 hc        1 MOL     -0.023805
     97 H41        -4.7750   -6.4320    0.5710 ha        1 MOL      0.105786
     98 H42        -5.4270   -3.1740   -2.0590 ha        1 MOL      0.105786
     99 H43        -7.2370   -7.1540    0.2980 ha        1 MOL      0.196463
    100 H44        -7.7470   -4.0030   -2.4710 ha        1 MOL      0.196463
    101 H45        -9.2640   -5.4000   -1.9070 ho        1 MOL      0.367147
    102 N10        -1.0470   -3.3630    1.5300 n         1 MOL     -0.565738
    103 C34         0.3340   -2.9200    1.8130 c3        1 MOL      0.023370
    104 C35         1.2800   -3.8920    0.9740 c         1 MOL      0.556627
    105 O15         1.1670   -5.1020    1.0720 o         1 MOL     -0.566285
    106 C36         0.7390   -2.8470    3.3140 c3        1 MOL      0.068735
    107 C37        -0.2560   -1.8170    4.0510 c3        1 MOL      0.159883
    108 C38         2.2340   -2.5310    3.5860 c3        1 MOL     -0.307033
    109 C39        -0.4680   -2.1110    5.5430 c3        1 MOL     -0.306471
    110 H46        -1.3550   -4.2590    1.8850 hn        1 MOL      0.329370
    111 H47         0.4890   -1.9430    1.3640 h1        1 MOL      0.030859
    112 H48         0.5710   -3.8360    3.7270 hc        1 MOL      0.024926
    113 H49        -1.2480   -1.7430    3.6200 hc        1 MOL      0.024502
    114 H50         0.1570   -0.8200    3.9250 hc        1 MOL      0.024502
    115 H51         2.4010   -1.4630    3.6610 hc        1 MOL      0.079031
    116 H52         2.5390   -3.0340    4.5120 hc        1 MOL      0.079031
    117 H53         2.8050   -3.0000    2.7850 hc        1 MOL      0.079031
    118 H54        -0.9860   -1.2840    6.0390 hc        1 MOL      0.065900
    119 H55        -1.0970   -3.0060    5.6370 hc        1 MOL      0.065900
    120 H56         0.5030   -2.3150    6.0020 hc        1 MOL      0.065900
    121 N11         2.0930   -3.2970    0.1320 n         1 MOL     -0.171306
    122 C40         3.0280   -3.9570   -0.7840 c3        1 MOL      0.029123
    123 C41         4.5220   -3.9690   -0.3800 c         1 MOL      0.379578
    124 O16         4.8810   -3.3380    0.6060 o         1 MOL     -0.332026
    125 C42         2.8020   -3.3340   -2.1580 c3        1 MOL     -0.393167
    126 O17         3.4360   -2.1260   -2.4020 oh        1 MOL     -0.272550
    127 H57         2.0580   -2.2920    0.1790 hn        1 MOL      0.243183
    128 H58         2.6860   -4.9820   -0.6410 h1        1 MOL      0.079195
    129 H59         1.7370   -3.1430   -2.2660 h1        1 MOL      0.140709
    130 H60         3.2160   -3.9230   -2.9850 h1        1 MOL      0.140709
    131 H61         2.9710   -1.7500   -3.1600 ho        1 MOL      0.366419
    132 N12         5.4750   -4.6590   -1.0470 n         1 MOL     -0.319620
    133 C43         6.9050   -4.6730   -0.7300 c3        1 MOL      0.057702
    134 C44         7.5940   -3.3600   -0.9960 c         1 MOL      0.455575
    135 O18         8.2870   -2.7960   -0.0880 o         1 MOL     -0.490228
    136 C45         7.5910   -5.8060   -1.5540 c3        1 MOL     -0.327907
    137 H62         5.2250   -5.2830   -1.7970 hn        1 MOL      0.264503
    138 H63         7.0700   -5.0520    0.2830 h1        1 MOL      0.113771
    139 H64         8.6600   -5.7550   -1.3720 hc        1 MOL      0.100314
    140 H65         7.1130   -6.7310   -1.2270 hc        1 MOL      0.100314
    141 H66         7.4150   -5.5540   -2.6000 hc        1 MOL      0.100314
    142 N13         7.3110   -2.8230   -2.2090 n         1 MOL     -0.365080
    143 C46         7.6450   -1.4740   -2.7130 c3        1 MOL      0.055169
    144 C47         7.1080   -0.4200   -1.7170 c         1 MOL      0.447689
    145 O19         7.7090    0.6190   -1.4800 o         1 MOL     -0.531682
    146 C48         6.8970   -1.3540   -4.0970 c3        1 MOL     -0.249490
    147 H67         6.7730   -3.4370   -2.8120 hn        1 MOL      0.288744
    148 H68         8.7230   -1.2920   -2.7350 h1        1 MOL      0.100455
    149 H69         7.2060   -0.4000   -4.5050 hc        1 MOL      0.068193
    150 H70         7.3370   -2.1540   -4.6840 hc        1 MOL      0.068193
    151 H71         5.8120   -1.4520   -4.0340 hc        1 MOL      0.068193
    152 N14         5.9390   -0.6940   -1.1080 n         1 MOL     -0.005294
    153 C49         5.4510    0.1340   -0.0430 c3        1 MOL     -0.134367
    154 C50         6.1200   -0.1340    1.2950 c         1 MOL      0.437975
    155 O20         6.4350    0.8340    2.0850 o         1 MOL     -0.560172
    156 C51         3.9040    0.0230   -0.0190 c3        1 MOL      0.222913
    157 C52         3.2250    0.7700   -1.1450 c3        1 MOL     -0.009884
    158 C53         1.7300    0.6950   -0.9510 c         1 MOL      0.641084
    159 O21         1.1360   -0.2430   -0.3320 o         1 MOL     -0.710460
    160 O22         1.0230    1.4730   -1.6310 o         1 MOL     -0.710460
    161 H72         5.5950   -1.6380   -1.2260 hn        1 MOL     -0.123190
    162 H73         5.8060    1.1300   -0.3270 h1        1 MOL      0.092720
    163 H74         3.5440    0.4970    0.8930 hc        1 MOL     -0.056138
    164 H75         3.6540   -1.0410   -0.0870 hc        1 MOL     -0.056138
    165 H76         3.5170    0.2650   -2.0670 hc        1 MOL     -0.051389
    166 H77         3.5770    1.8000   -1.2040 hc        1 MOL     -0.051389
    167 N15         6.3410   -1.3700    1.7480 n         1 MOL     -0.009671
    168 C54         6.9070   -1.5660    3.0120 c3        1 MOL     -0.350372
    169 H78         7.3490   -2.5610    3.0610 h1        1 MOL      0.121073
    170 H79         7.6800   -0.8170    3.1850 h1        1 MOL      0.121073
    171 H80         6.1340   -1.4750    3.7740 h1        1 MOL      0.121073
    172 H81         5.9350   -2.1540    1.2650 hn        1 MOL      0.082486
    173 Ca1        -1.2400    0.3920   -1.2330 Ca        1 MOL      1.786487
    174 O23        -1.5740    0.6390   -3.9710 oh        1 MOL     -0.843361
    175 H82        -2.2360    0.3000   -4.5860 ho        1 MOL      0.397332
    176 H83        -1.4310    1.5370   -4.2550 ho        1 MOL      0.397332
    177 O24        -0.7240   -1.9120   -2.6310 oh        1 MOL     -0.843361
    178 H84        -0.5440   -2.8130   -2.3420 ho        1 MOL      0.397332
    179 H85        -1.1830   -2.0310   -3.4720 ho        1 MOL      0.397332
@<TRIPOS>BOND
     1    1    2 1   
     2    1    4 1   
     3    1    5 1   
     4    1    6 1   
     5    2    3 2   
     6    2    7 1   
     7    7    8 1   
     8    7   15 1   
     9    8    9 1   
    10    8   11 1   
    11    8   16 1   
    12    9   10 2   
    13    9   19 1   
    14   11   12 1   
    15   11   17 1   
    16   11   18 1   
    17   12   13 1   
    18   12   14 1   
    19   19   20 1   
    20   19   28 1   
    21   20   21 1   
    22   20   23 1   
    23   20   29 1   
    24   21   22 2   
    25   21   41 1   
    26   23   24 1   
    27   23   30 1   
    28   23   31 1   
    29   24   25 1   
    30   24   32 1   
    31   24   33 1   
    32   25   26 1   
    33   25   34 1   
    34   25   35 1   
    35   26   27 1   
    36   26   36 1   
    37   26   37 1   
    38   27   38 1   
    39   27   39 1   
    40   27   40 1   
    41   41   42 1   
    42   41   49 1   
    43   42   43 1   
    44   42   45 1   
    45   42   50 1   
    46   43   44 2   
    47   43   53 1   
    48   45   46 1   
    49   45   51 1   
    50   45   52 1   
    51   46   47 1   
    52   46   48 1   
    53   53   54 1   
    54   53   57 1   
    55   54   55 1   
    56   54   58 1   
    57   54   59 1   
    58   55   56 2   
    59   55   60 1   
    60   60   61 1   
    61   60   68 1   
    62   61   62 1   
    63   61   64 1   
    64   61   69 1   
    65   62   63 2   
    66   62   74 1   
    67   64   65 1   
    68   64   70 1   
    69   64   71 1   
    70   65   66 1   
    71   65   67 2   
    72   66   72 1   
    73   66   73 1   
    74   74   75 1   
    75   74   78 1   
    76   75   76 1   
    77   75   79 1   
    78   75   80 1   
    79   76   77 2   
    80   76   81 1   
    81   81   82 1   
    82   81   93 1   
    83   82   83 1   
    84   82   85 1   
    85   82   94 1   
    86   83   84 2   
    87   83  102 1   
    88   85   86 1   
    89   85   95 1   
    90   85   96 1   
    91   86   87 ar  
    92   86   88 ar  
    93   87   89 ar  
    94   87   97 1   
    95   88   90 ar  
    96   88   98 1   
    97   89   91 ar  
    98   89   99 1   
    99   90   91 ar  
   100   90  100 1   
   101   91   92 1   
   102   92  101 1   
   103  102  103 1   
   104  102  110 1   
   105  103  104 1   
   106  103  106 1   
   107  103  111 1   
   108  104  105 2   
   109  104  121 1   
   110  106  107 1   
   111  106  108 1   
   112  106  112 1   
   113  107  109 1   
   114  107  113 1   
   115  107  114 1   
   116  108  115 1   
   117  108  116 1   
   118  108  117 1   
   119  109  118 1   
   120  109  119 1   
   121  109  120 1   
   122  121  122 1   
   123  121  127 1   
   124  122  123 1   
   125  122  125 1   
   126  122  128 1   
   127  123  124 2   
   128  123  132 1   
   129  125  126 1   
   130  125  129 1   
   131  125  130 1   
   132  126  131 1   
   133  132  133 1   
   134  132  137 1   
   135  133  134 1   
   136  133  136 1   
   137  133  138 1   
   138  134  135 2   
   139  134  142 1   
   140  136  139 1   
   141  136  140 1   
   142  136  141 1   
   143  142  143 1   
   144  142  147 1   
   145  143  144 1   
   146  143  146 1   
   147  143  148 1   
   148  144  145 2   
   149  144  152 1   
   150  146  149 1   
   151  146  150 1   
   152  146  151 1   
   153  152  153 1   
   154  152  161 1   
   155  153  154 1   
   156  153  156 1   
   157  153  162 1   
   158  154  155 2   
   159  154  167 1   
   160  156  157 1   
   161  156  163 1   
   162  156  164 1   
   163  157  158 1   
   164  157  165 1   
   165  157  166 1   
   166  158  159 1   
   167  158  160 1   
   168  167  168 1   
   169  167  172 1   
   170  168  169 1   
   171  168  170 1   
   172  168  171 1   
   173  174  175 1   
   174  174  176 1   
   175  177  178 1   
   176  177  179 1   
@<TRIPOS>SUBSTRUCTURE
     1 MOL         1 TEMP              0 ****  ****    0 ROOT
