@<TRIPOS>MOLECULE
MOL
  175   173     1     0     0
SMALL
resp


@<TRIPOS>ATOM
      1 C1          0.9920    3.9910    5.6430 c3        1 MOL     -0.352371
      2 C2          0.4350    3.8880    4.2130 c         1 MOL      0.691007
      3 O1          1.2080    4.0900    3.2660 o         1 MOL     -0.533702
      4 H1          0.7250    4.9590    6.0660 hc        1 MOL      0.091037
      5 H2          0.5670    3.1970    6.2570 hc        1 MOL      0.091037
      6 H3          2.0760    3.8930    5.6190 hc        1 MOL      0.091037
      7 N1         -0.8630    3.6130    3.9170 n         1 MOL     -0.640197
      8 C3         -1.4740    3.2710    2.6040 c3        1 MOL      0.029255
      9 C4         -1.6590    4.5270    1.7570 c         1 MOL      0.698054
     10 O2         -1.9510    5.6030    2.2990 o         1 MOL     -0.592553
     11 C5         -2.8320    2.6910    2.9140 c3        1 MOL     -0.372513
     12 C6         -3.6900    2.1640    1.7520 c         1 MOL      0.844399
     13 O3         -3.0250    2.0140    0.7010 o         1 MOL     -0.692642
     14 O4         -4.8080    1.6390    1.9430 o         1 MOL     -0.692642
     15 H4         -1.5260    3.5990    4.6890 hn        1 MOL      0.327133
     16 H5         -0.8500    2.5740    2.0550 h1        1 MOL      0.176019
     17 H6         -3.4270    3.4480    3.4330 hc        1 MOL      0.069707
     18 H7         -2.7260    1.8320    3.5900 hc        1 MOL      0.069707
     19 N2         -1.5590    4.3990    0.4500 n         1 MOL     -0.677163
     20 C7         -1.7420    5.4830   -0.4820 c3        1 MOL      0.377003
     21 C8         -2.8430    5.1840   -1.5550 c         1 MOL      0.488098
     22 O5         -3.0360    6.1310   -2.3200 o         1 MOL     -0.570547
     23 C9         -0.3250    5.8180   -1.0190 c3        1 MOL     -0.251025
     24 H8         -1.3150    3.5150    0.0380 hn        1 MOL      0.402551
     25 H9         -2.1170    6.3710    0.0330 h1        1 MOL     -0.012865
     26 H10         0.2790    6.1820   -0.1920 hc        1 MOL      0.055782
     27 H11         0.0560    4.9760   -1.5950 hc        1 MOL      0.055782
     28 H12        -0.3940    6.6670   -1.7050 hc        1 MOL      0.055782
     29 N3         -3.5060    3.9840   -1.5520 n         1 MOL     -0.412996
     30 C10        -4.5320    3.5910   -2.6120 c3        1 MOL      0.087319
     31 C11        -5.8130    2.8990   -2.1130 c         1 MOL      0.385041
     32 O6         -6.7950    2.7380   -2.8410 o         1 MOL     -0.554522
     33 C12        -3.8750    2.7320   -3.7050 c3        1 MOL     -0.186151
     34 C13        -3.0650    1.6070   -3.1680 c         1 MOL      0.768004
     35 O7         -1.9770    1.3240   -3.7140 o         1 MOL     -0.701650
     36 O8         -3.5100    0.9190   -2.2190 o         1 MOL     -0.701650
     37 H13        -3.2130    3.3270   -0.8420 hn        1 MOL      0.172319
     38 H14        -4.8180    4.5580   -3.0470 h1        1 MOL      0.078314
     39 H15        -3.2270    3.4710   -4.1570 hc        1 MOL      0.044166
     40 H16        -4.6140    2.4260   -4.4550 hc        1 MOL      0.044166
     41 N4         -5.8930    2.5460   -0.8660 n         1 MOL     -0.148120
     42 C14        -7.0780    1.9610   -0.2930 c3        1 MOL     -0.215810
     43 C15        -7.3220    0.5050   -0.7510 c         1 MOL      0.538939
     44 O9         -8.3820   -0.0300   -0.4610 o         1 MOL     -0.596861
     45 H17        -5.0800    2.6650   -0.2720 hn        1 MOL      0.120645
     46 H18        -7.9130    2.6450   -0.4480 h1        1 MOL      0.118076
     47 H19        -6.9190    1.9710    0.7920 h1        1 MOL      0.118076
     48 N5         -6.4320   -0.1380   -1.4780 n         1 MOL     -0.280462
     49 C16        -6.6780   -1.5040   -1.9190 c3        1 MOL      0.148885
     50 C17        -6.9190   -2.5450   -0.8140 c         1 MOL      0.476561
     51 O10        -7.6850   -3.4530   -1.0770 o         1 MOL     -0.572064
     52 C18        -5.5980   -1.8580   -2.9760 c3        1 MOL     -0.155076
     53 C19        -4.1510   -2.1140   -2.5080 c         1 MOL      0.508248
     54 N6         -3.1970   -2.1780   -3.3550 n         1 MOL     -0.554271
     55 O11        -3.7700   -2.1090   -1.3610 o         1 MOL     -0.619383
     56 H20        -5.5840    0.3000   -1.8080 hn        1 MOL      0.196510
     57 H21        -7.5840   -1.6550   -2.5050 h1        1 MOL      0.032494
     58 H22        -5.6500   -1.0580   -3.7060 hc        1 MOL      0.054809
     59 H23        -5.9850   -2.7080   -3.5510 hc        1 MOL      0.054809
     60 H24        -3.4280   -2.0610   -4.3290 hn        1 MOL      0.298827
     61 H25        -2.2620   -2.3020   -2.9930 hn        1 MOL      0.298827
     62 N7         -6.3030   -2.4340    0.3710 n         1 MOL     -0.140996
     63 C20        -6.4340   -3.3030    1.5000 c3        1 MOL     -0.032792
     64 C21        -5.2190   -4.2440    1.6880 c         1 MOL      0.533509
     65 O12        -5.3790   -5.3300    2.2670 o         1 MOL     -0.578422
     66 H26        -5.6520   -1.6540    0.4360 hn        1 MOL      0.111098
     67 H27        -7.3220   -3.9390    1.4790 h1        1 MOL      0.041634
     68 H28        -6.5820   -2.6800    2.3810 h1        1 MOL      0.041634
     69 N8         -4.0820   -3.7670    1.2020 n         1 MOL     -0.276369
     70 C22        -2.7530   -4.4330    1.4800 c3        1 MOL     -0.098993
     71 C23        -1.5780   -3.4270    1.3860 c         1 MOL      0.608435
     72 O13        -1.6710   -2.4080    0.7110 o         1 MOL     -0.493678
     73 C24        -2.4140   -5.5440    0.5050 c3        1 MOL      0.430959
     74 C25        -3.2200   -6.8670    0.6910 c3        1 MOL     -0.478848
     75 O14        -2.5820   -5.0820   -0.8090 oh        1 MOL     -0.595297
     76 H29        -3.9450   -2.7850    1.0180 hn        1 MOL      0.179075
     77 H30        -2.6820   -4.8720    2.4780 h1        1 MOL      0.048458
     78 H31        -1.3480   -5.7580    0.6280 h1        1 MOL     -0.020297
     79 H32        -2.2450   -4.1850   -0.8930 ho        1 MOL      0.375164
     80 H33        -2.6340   -7.6430    0.1970 hc        1 MOL      0.125073
     81 H34        -3.2800   -7.2280    1.7180 hc        1 MOL      0.125073
     82 H35        -4.1460   -6.8940    0.1360 hc        1 MOL      0.125073
     83 N9         -0.4450   -3.6620    2.0520 n         1 MOL     -0.657332
     84 C26         0.7250   -2.8040    1.9370 c3        1 MOL     -0.058579
     85 C27         1.3670   -3.1110    0.5920 c         1 MOL      0.640541
     86 O15         1.7300   -4.2420    0.3450 o         1 MOL     -0.627003
     87 C28         1.6800   -2.9720    3.1490 c3        1 MOL      0.458598
     88 C29         0.9240   -2.7190    4.4510 c3        1 MOL      0.033792
     89 C30         2.8850   -2.0690    2.9970 c3        1 MOL     -0.381913
     90 C31         1.8020   -3.1610    5.6270 c3        1 MOL     -0.121677
     91 H36        -0.4450   -4.4780    2.6560 hn        1 MOL      0.335125
     92 H37         0.3540   -1.7800    1.9660 h1        1 MOL     -0.064218
     93 H38         1.9890   -4.0160    3.1100 hc        1 MOL     -0.077301
     94 H39         0.1340   -3.4690    4.4310 hc        1 MOL     -0.021394
     95 H40         0.6660   -1.6720    4.5500 hc        1 MOL     -0.021394
     96 H41         2.7240   -1.0490    3.3420 hc        1 MOL      0.054719
     97 H42         3.6700   -2.4730    3.6330 hc        1 MOL      0.054719
     98 H43         3.2410   -2.1120    1.9690 hc        1 MOL      0.054719
     99 H44         1.1890   -3.2050    6.5230 hc        1 MOL      0.019638
    100 H45         2.3370   -4.1070    5.5260 hc        1 MOL      0.019638
    101 H46         2.5310   -2.3850    5.8510 hc        1 MOL      0.019638
    102 N10         1.5290   -2.1260   -0.2120 n         1 MOL     -0.181754
    103 C32         2.3420   -2.1900   -1.4290 c3        1 MOL      0.006930
    104 C33         3.6860   -1.4840   -1.1730 c         1 MOL      0.311741
    105 O16         3.7660   -0.6310   -0.3240 o         1 MOL     -0.162922
    106 C34         1.5940   -1.4240   -2.5460 c3        1 MOL     -0.273239
    107 C35         0.0980   -1.8300   -2.7270 c         1 MOL      0.717351
    108 O17        -0.7410   -1.4670   -1.8500 o         1 MOL     -0.650426
    109 O18        -0.2320   -2.4130   -3.7680 o         1 MOL     -0.650426
    110 H47         1.1410   -1.2270    0.0270 hn        1 MOL      0.105924
    111 H48         2.4890   -3.2210   -1.7740 h1        1 MOL      0.077342
    112 H49         2.2170   -1.5990   -3.4210 hc        1 MOL      0.075746
    113 H50         1.5840   -0.3520   -2.3260 hc        1 MOL      0.075746
    114 N11         4.7010   -1.7740   -1.9590 n         1 MOL     -0.513862
    115 C36         6.0980   -1.5280   -1.6320 c3        1 MOL      0.281548
    116 C37         6.5910   -0.0910   -1.1530 c         1 MOL      0.401047
    117 O19         7.1770   -0.1040   -0.0970 o         1 MOL     -0.492025
    118 C38         6.9860   -2.0530   -2.7740 c3        1 MOL     -0.302418
    119 C39         8.4570   -2.1630   -2.3270 ca        1 MOL      0.118425
    120 C40         8.8820   -3.1910   -1.4690 ca        1 MOL     -0.153603
    121 C41         9.3730   -1.2130   -2.7720 ca        1 MOL     -0.153603
    122 C42        10.2440   -3.2600   -1.1390 ca        1 MOL     -0.106354
    123 C43        10.7080   -1.3240   -2.4220 ca        1 MOL     -0.106354
    124 C44        11.2650   -2.3710   -1.6100 ca        1 MOL     -0.154708
    125 H51         4.5720   -2.2950   -2.8190 hn        1 MOL      0.317613
    126 H52         6.2770   -2.1890   -0.7870 h1        1 MOL      0.056938
    127 H53         6.8610   -1.3880   -3.6200 hc        1 MOL      0.089238
    128 H54         6.6130   -3.0590   -3.0020 hc        1 MOL      0.089238
    129 H55         8.2220   -3.9810   -1.1540 ha        1 MOL      0.116454
    130 H56         9.0610   -0.3980   -3.4080 ha        1 MOL      0.116454
    131 H57        10.5590   -3.9630   -0.3800 ha        1 MOL      0.101137
    132 H58        11.3940   -0.5280   -2.6550 ha        1 MOL      0.101137
    133 H59        12.2930   -2.4350   -1.2830 ha        1 MOL      0.134695
    134 N12         6.2230    1.0600   -1.7510 n         1 MOL     -0.133856
    135 C45         6.5990    2.4450   -1.2900 c3        1 MOL     -0.106342
    136 C46         5.8710    2.8530    0.0310 c         1 MOL      0.427877
    137 O20         6.3100    3.8240    0.6300 o         1 MOL     -0.517724
    138 C47         6.2800    3.3820   -2.4380 c3        1 MOL     -0.059627
    139 C48         5.1460    2.7000   -3.1060 c3        1 MOL      0.058452
    140 C49         5.4070    1.2220   -2.9230 c3        1 MOL     -0.012614
    141 H60         7.6750    2.4480   -1.1240 h1        1 MOL      0.099458
    142 H61         6.0710    4.3770   -2.0470 hc        1 MOL      0.046041
    143 H62         7.0690    3.4660   -3.1780 hc        1 MOL      0.046041
    144 H63         4.1710    3.0180   -2.7220 hc        1 MOL      0.010880
    145 H64         5.1950    2.9130   -4.1760 hc        1 MOL      0.010880
    146 H65         4.4760    0.6870   -2.7480 h1        1 MOL      0.024905
    147 H66         5.7490    0.6750   -3.8070 h1        1 MOL      0.024905
    148 N13         4.8340    2.0930    0.3980 n         1 MOL     -0.051234
    149 C50         4.1750    2.1940    1.6960 c3        1 MOL     -0.043010
    150 C51         4.8690    1.4280    2.7410 c         1 MOL      0.315680
    151 O21         5.0140    1.8850    3.8640 o         1 MOL     -0.546079
    152 C52         2.7490    1.6940    1.5900 c3        1 MOL     -0.031321
    153 C53         1.8980    2.1750    0.4310 c3        1 MOL     -0.322821
    154 C54         0.5210    1.4910    0.3340 c         1 MOL      0.625152
    155 O22        -0.3430    1.8920   -0.4930 o         1 MOL     -0.689978
    156 O23         0.2120    0.4390    0.9610 o         1 MOL     -0.689978
    157 H67         4.5090    1.3810   -0.2470 hn        1 MOL      0.033587
    158 H68         4.0610    3.2330    2.0000 h1        1 MOL      0.096578
    159 H69         2.1630    1.7690    2.5000 hc        1 MOL      0.073987
    160 H70         2.8700    0.6140    1.4230 hc        1 MOL      0.073987
    161 H71         2.4360    1.8820   -0.4700 hc        1 MOL      0.119205
    162 H72         1.7050    3.2370    0.5900 hc        1 MOL      0.119205
    163 N14         5.5420    0.3510    2.4290 n         1 MOL      0.170012
    164 C55         6.4230   -0.3520    3.3140 c3        1 MOL     -0.178225
    165 H73         6.3220    0.0520    4.3220 h1        1 MOL      0.061688
    166 H74         6.1630   -1.4110    3.3200 h1        1 MOL      0.061688
    167 H75         7.4510   -0.2320    2.9750 h1        1 MOL      0.061688
    168 H76         5.5950    0.1000    1.4540 hn        1 MOL     -0.055152
    169 Ca1        -2.0680   -0.0910   -0.3390 Ca        1 MOL      1.666516
    170 O24        -4.1310   -0.7690    1.5660 oh        1 MOL     -0.703390
    171 H77        -4.5870    0.0780    1.5870 ho        1 MOL      0.365580
    172 H78        -3.8900   -0.9330    2.4750 ho        1 MOL      0.365580
    173 O25        -1.3880   -0.1740    2.8370 oh        1 MOL     -0.703390
    174 H79        -1.2080    0.0480    3.7500 ho        1 MOL      0.365580
    175 H80        -0.6140    0.1130    2.3620 ho        1 MOL      0.365580
@<TRIPOS>BOND
     1    1    2 1   
     2    1    4 1   
     3    1    5 1   
     4    1    6 1   
     5    2    3 2   
     6    2    7 1   
     7    7    8 1   
     8    7   15 1   
     9    8    9 1   
    10    8   11 1   
    11    8   16 1   
    12    9   10 2   
    13    9   19 1   
    14   11   12 1   
    15   11   17 1   
    16   11   18 1   
    17   12   13 1   
    18   12   14 1   
    19   19   20 1   
    20   19   24 1   
    21   20   21 1   
    22   20   23 1   
    23   20   25 1   
    24   21   22 2   
    25   21   29 1   
    26   23   26 1   
    27   23   27 1   
    28   23   28 1   
    29   29   30 1   
    30   29   37 1   
    31   30   31 1   
    32   30   33 1   
    33   30   38 1   
    34   31   32 2   
    35   31   41 1   
    36   33   34 1   
    37   33   39 1   
    38   33   40 1   
    39   34   35 1   
    40   34   36 1   
    41   41   42 1   
    42   41   45 1   
    43   42   43 1   
    44   42   46 1   
    45   42   47 1   
    46   43   44 2   
    47   43   48 1   
    48   48   49 1   
    49   48   56 1   
    50   49   50 1   
    51   49   52 1   
    52   49   57 1   
    53   50   51 2   
    54   50   62 1   
    55   52   53 1   
    56   52   58 1   
    57   52   59 1   
    58   53   54 1   
    59   53   55 2   
    60   54   60 1   
    61   54   61 1   
    62   62   63 1   
    63   62   66 1   
    64   63   64 1   
    65   63   67 1   
    66   63   68 1   
    67   64   65 2   
    68   64   69 1   
    69   69   70 1   
    70   69   76 1   
    71   70   71 1   
    72   70   73 1   
    73   70   77 1   
    74   71   72 2   
    75   71   83 1   
    76   73   74 1   
    77   73   75 1   
    78   73   78 1   
    79   74   80 1   
    80   74   81 1   
    81   74   82 1   
    82   75   79 1   
    83   83   84 1   
    84   83   91 1   
    85   84   85 1   
    86   84   87 1   
    87   84   92 1   
    88   85   86 2   
    89   85  102 1   
    90   87   88 1   
    91   87   89 1   
    92   87   93 1   
    93   88   90 1   
    94   88   94 1   
    95   88   95 1   
    96   89   96 1   
    97   89   97 1   
    98   89   98 1   
    99   90   99 1   
   100   90  100 1   
   101   90  101 1   
   102  102  103 1   
   103  102  110 1   
   104  103  104 1   
   105  103  106 1   
   106  103  111 1   
   107  104  105 2   
   108  104  114 1   
   109  106  107 1   
   110  106  112 1   
   111  106  113 1   
   112  107  108 1   
   113  107  109 1   
   114  114  115 1   
   115  114  125 1   
   116  115  116 1   
   117  115  118 1   
   118  115  126 1   
   119  116  117 2   
   120  116  134 1   
   121  118  119 1   
   122  118  127 1   
   123  118  128 1   
   124  119  120 ar  
   125  119  121 ar  
   126  120  122 ar  
   127  120  129 1   
   128  121  123 ar  
   129  121  130 1   
   130  122  124 ar  
   131  122  131 1   
   132  123  124 ar  
   133  123  132 1   
   134  124  133 1   
   135  134  135 1   
   136  134  140 1   
   137  135  136 1   
   138  135  138 1   
   139  135  141 1   
   140  136  137 2   
   141  136  148 1   
   142  138  139 1   
   143  138  142 1   
   144  138  143 1   
   145  139  140 1   
   146  139  144 1   
   147  139  145 1   
   148  140  146 1   
   149  140  147 1   
   150  148  149 1   
   151  148  157 1   
   152  149  150 1   
   153  149  152 1   
   154  149  158 1   
   155  150  151 2   
   156  150  163 1   
   157  152  153 1   
   158  152  159 1   
   159  152  160 1   
   160  153  154 1   
   161  153  161 1   
   162  153  162 1   
   163  154  155 1   
   164  154  156 1   
   165  163  164 1   
   166  163  168 1   
   167  164  165 1   
   168  164  166 1   
   169  164  167 1   
   170  170  171 1   
   171  170  172 1   
   172  173  174 1   
   173  173  175 1   
@<TRIPOS>SUBSTRUCTURE
     1 MOL         1 TEMP              0 ****  ****    0 ROOT
