@<TRIPOS>MOLECULE
MOL
  189   185     1     0     0
SMALL
resp


@<TRIPOS>ATOM
      1 C1          1.3400   -3.1350    6.1510 c3        1 MOL     -0.496329
      2 C2          1.4750   -2.8250    4.6520 c         1 MOL      0.721790
      3 O1          1.0880   -1.7870    4.1710 o         1 MOL     -0.546906
      4 H1          1.0000   -2.2420    6.6770 hc        1 MOL      0.126567
      5 H2          0.6160   -3.9370    6.2930 hc        1 MOL      0.126567
      6 H3          2.3070   -3.4430    6.5480 hc        1 MOL      0.126567
      7 N1          2.0330   -3.7590    3.9100 n         1 MOL     -0.600390
      8 C3          2.5980   -3.5530    2.6170 c3        1 MOL      0.270772
      9 C4          2.4420   -4.7330    1.7310 c         1 MOL      0.463555
     10 O2          2.6080   -5.8480    2.2110 o         1 MOL     -0.586955
     11 C5          4.0930   -3.1550    2.6470 c3        1 MOL     -0.270495
     12 C6          4.6370   -2.8240    1.2190 c         1 MOL      0.643304
     13 O3          3.8840   -2.1550    0.4800 o         1 MOL     -0.632905
     14 O4          5.8160   -3.0580    0.8640 o         1 MOL     -0.632905
     15 H4          2.3000   -4.5880    4.4160 hn        1 MOL      0.299558
     16 H5          2.0060   -2.7250    2.2280 h1        1 MOL      0.050237
     17 H6          4.6040   -4.0560    3.0030 hc        1 MOL      0.041882
     18 H7          4.2410   -2.3230    3.3300 hc        1 MOL      0.041882
     19 N2          2.0610   -4.5400    0.4810 n         1 MOL     -0.116333
     20 C7          2.1440   -5.5340   -0.5640 c3        1 MOL     -0.096014
     21 C8          2.8060   -5.0340   -1.8800 c         1 MOL      0.427733
     22 O5          2.7740   -5.8290   -2.8110 o         1 MOL     -0.570562
     23 C9          0.7880   -6.2410   -0.7730 c3        1 MOL      0.243360
     24 C10        -0.1220   -5.2400   -1.3990 c3        1 MOL     -0.016633
     25 C11         0.1090   -6.8460    0.5420 c3        1 MOL     -0.176988
     26 C12        -1.5780   -5.6770   -1.8210 c3        1 MOL     -0.173452
     27 H8          1.8510   -3.5670    0.2910 hn        1 MOL      0.001514
     28 H9          2.7310   -6.3870   -0.1970 h1        1 MOL      0.080080
     29 H10         0.8820   -7.0350   -1.5120 hc        1 MOL     -0.057124
     30 H11         0.2930   -4.9680   -2.3690 hc        1 MOL      0.052882
     31 H12        -0.1670   -4.3450   -0.7830 hc        1 MOL      0.052882
     32 H13        -0.7350   -7.5160    0.3480 hc        1 MOL      0.023178
     33 H14         0.8580   -7.4730    1.0340 hc        1 MOL      0.023178
     34 H15        -0.2190   -6.0490    1.2090 hc        1 MOL      0.023178
     35 H16        -1.6350   -6.4440   -2.5950 hc        1 MOL      0.036453
     36 H17        -2.0560   -6.0300   -0.9050 hc        1 MOL      0.036453
     37 H18        -2.0940   -4.8000   -2.2100 hc        1 MOL      0.036453
     38 N3          3.4100   -3.8900   -1.9940 n         1 MOL     -0.293933
     39 C13         3.9410   -3.3740   -3.2770 c3        1 MOL      0.039139
     40 C14         5.2120   -2.6070   -3.2670 c         1 MOL      0.284443
     41 O6          5.8750   -2.3040   -4.2930 o         1 MOL     -0.527038
     42 C15         2.8230   -2.5290   -3.9760 c3        1 MOL     -0.298668
     43 C16         2.4510   -1.2200   -3.2350 c         1 MOL      0.807522
     44 O7          3.0610   -0.8510   -2.2390 o         1 MOL     -0.705277
     45 O8          1.5350   -0.5310   -3.7460 o         1 MOL     -0.705277
     46 H19         3.4820   -3.3340   -1.1450 hn        1 MOL      0.295609
     47 H20         4.1710   -4.1770   -3.9880 h1        1 MOL      0.109887
     48 H21         1.9250   -3.1350   -4.0480 hc        1 MOL      0.092235
     49 H22         3.1150   -2.1840   -4.9690 hc        1 MOL      0.092235
     50 N4          5.7050   -2.2570   -2.0520 n         1 MOL      0.009654
     51 C17         6.9580   -1.5180   -1.8310 c3        1 MOL     -0.373031
     52 C18         6.8940   -0.0560   -2.2470 c         1 MOL      0.539210
     53 O9          7.9400    0.4870   -2.5180 o         1 MOL     -0.602119
     54 H23         5.1530   -2.4690   -1.2350 hn        1 MOL      0.021280
     55 H24         7.6710   -1.8690   -2.5660 h1        1 MOL      0.143713
     56 H25         7.2880   -1.5820   -0.7940 h1        1 MOL      0.143713
     57 N5          5.7240    0.5570   -2.4140 n         1 MOL     -0.173939
     58 C19         5.6570    1.8850   -3.0380 c3        1 MOL     -0.084706
     59 C20         6.1850    2.9390   -2.0140 c         1 MOL      0.494604
     60 O10         6.7160    3.9760   -2.5080 o         1 MOL     -0.595491
     61 C21         4.1830    2.2760   -3.5000 c3        1 MOL     -0.253461
     62 C22         3.1540    2.4050   -2.4030 c         1 MOL      0.787965
     63 O11         3.4230    1.9710   -1.2640 o         1 MOL     -0.715403
     64 O12         2.1010    2.9730   -2.7260 o         1 MOL     -0.715403
     65 H26         4.9460   -0.0150   -2.1380 hn        1 MOL      0.267224
     66 H27         6.3550    1.9200   -3.8770 h1        1 MOL      0.107241
     67 H28         3.8690    1.5080   -4.2030 hc        1 MOL      0.073335
     68 H29         4.2400    3.2300   -4.0270 hc        1 MOL      0.073335
     69 N6          6.1340    2.7200   -0.7030 n         1 MOL     -0.292661
     70 C23         6.5760    3.6090    0.3380 c3        1 MOL     -0.051570
     71 C24         5.4710    3.9110    1.3610 c         1 MOL      0.473132
     72 O13         5.7920    4.5230    2.3790 o         1 MOL     -0.600554
     73 H30         5.6840    1.8570   -0.4370 hn        1 MOL      0.234355
     74 H31         6.9780    4.5480   -0.0560 h1        1 MOL      0.067557
     75 H32         7.3420    3.1320    0.9480 h1        1 MOL      0.067557
     76 N7          4.2240    3.5940    1.0790 n         1 MOL     -0.254663
     77 C25         3.0680    4.0900    1.8870 c3        1 MOL      0.047859
     78 C26         1.9630    3.0530    2.0230 c         1 MOL      0.537145
     79 O14         1.8180    2.3500    1.0810 o         1 MOL     -0.601926
     80 C27         2.5250    5.4940    1.2800 c3        1 MOL     -0.077428
     81 C28         3.5440    6.6250    0.9600 c3        1 MOL     -0.321883
     82 C29         2.8840    7.9180    0.4400 c         1 MOL      0.684977
     83 N8          2.4400    7.9530   -0.8040 n         1 MOL     -0.826238
     84 O15         2.7230    8.8730    1.2030 o         1 MOL     -0.587836
     85 H33         3.9960    3.1350    0.2140 hn        1 MOL      0.222290
     86 H34         3.4000    4.2770    2.9130 h1        1 MOL      0.023965
     87 H35         1.7280    5.9020    1.8970 hc        1 MOL      0.075559
     88 H36         2.1690    5.2570    0.2790 hc        1 MOL      0.075559
     89 H37         4.3240    6.3350    0.2670 hc        1 MOL      0.116002
     90 H38         4.0450    6.7820    1.9090 hc        1 MOL      0.116002
     91 H39         2.6460    7.1600   -1.4000 hn        1 MOL      0.378805
     92 H40         1.9330    8.7240   -1.2170 hn        1 MOL      0.378805
     93 N9          1.1680    3.1010    3.1120 n         1 MOL     -0.500963
     94 C30        -0.0120    2.2370    3.1130 c3        1 MOL      0.127535
     95 C31        -1.1740    2.8860    2.2930 c         1 MOL      0.615673
     96 O16        -1.3280    4.0380    2.3010 o         1 MOL     -0.590786
     97 C32        -0.4600    2.0570    4.5710 c3        1 MOL      0.131945
     98 C33        -1.6120    1.0280    4.8130 c3        1 MOL     -0.241925
     99 C34         0.6250    1.5120    5.6220 c3        1 MOL     -0.241925
    100 H41         1.2280    3.8660    3.7640 hn        1 MOL      0.300545
    101 H42         0.1540    1.2030    2.7940 h1        1 MOL      0.026297
    102 H43        -0.8710    3.0450    4.7530 hc        1 MOL     -0.034354
    103 H44        -1.2690    0.0290    4.5250 hc        1 MOL      0.055429
    104 H45        -1.9240    1.1010    5.8570 hc        1 MOL      0.055429
    105 H46        -2.4460    1.3340    4.1880 hc        1 MOL      0.055429
    106 H47         1.4310    2.2470    5.7170 hc        1 MOL      0.055429
    107 H48         0.2000    1.2830    6.5990 hc        1 MOL      0.055429
    108 H49         1.0780    0.6360    5.1580 hc        1 MOL      0.055429
    109 N10        -2.0250    2.0130    1.6800 n         1 MOL     -0.251454
    110 C35        -3.1990    2.3770    0.8570 c3        1 MOL      0.290052
    111 C36        -4.4550    1.7690    1.4000 c         1 MOL      0.133435
    112 O17        -4.4310    0.8520    2.2280 o         1 MOL     -0.397803
    113 C37        -2.8830    1.8320   -0.5160 c3        1 MOL     -0.359981
    114 C38        -3.8250    2.2040   -1.6900 c         1 MOL      0.822324
    115 N11        -4.0560    3.4580   -2.0060 n         1 MOL     -0.805658
    116 O18        -4.3490    1.2770   -2.2540 o         1 MOL     -0.601650
    117 H50        -1.7390    1.0460    1.7440 hn        1 MOL      0.037185
    118 H51        -3.2340    3.4660    0.7480 h1        1 MOL     -0.004998
    119 H52        -2.7540    0.7550   -0.4120 hc        1 MOL      0.118779
    120 H53        -1.9850    2.3070   -0.9350 hc        1 MOL      0.118779
    121 H54        -3.6710    4.1740   -1.4160 hn        1 MOL      0.353676
    122 H55        -4.7840    3.6370   -2.6750 hn        1 MOL      0.353676
    123 N12        -5.5710    2.1030    0.8620 n         1 MOL     -0.036801
    124 C39        -6.8780    1.4380    1.0580 c3        1 MOL      0.063044
    125 C40        -6.9230   -0.0310    0.6030 c         1 MOL      0.359647
    126 O19        -7.4520   -0.8210    1.3280 o         1 MOL     -0.538857
    127 C41        -8.0130    2.2090    0.4020 c3        1 MOL     -0.240008
    128 C42        -7.8430    2.6180   -1.0580 ca        1 MOL      0.008703
    129 C43        -8.2590    1.6790   -1.9960 ca        1 MOL     -0.116756
    130 C44        -7.2720    3.8550   -1.4000 ca        1 MOL     -0.116756
    131 C45        -8.0840    2.0320   -3.3420 ca        1 MOL     -0.334535
    132 C46        -7.1930    4.2620   -2.7520 ca        1 MOL     -0.334535
    133 C47        -7.5520    3.2850   -3.7290 ca        1 MOL      0.435887
    134 O20        -7.4180    3.5150   -5.0860 oh        1 MOL     -0.588685
    135 H56        -5.5910    2.9150    0.2630 hn        1 MOL      0.043757
    136 H57        -7.1370    1.3830    2.1130 h1        1 MOL      0.070825
    137 H58        -8.1830    3.1150    0.9680 hc        1 MOL      0.082936
    138 H59        -8.9130    1.5870    0.4090 hc        1 MOL      0.082936
    139 H60        -8.7300    0.7620   -1.6740 ha        1 MOL      0.136457
    140 H61        -6.9800    4.5230   -0.6060 ha        1 MOL      0.136457
    141 H62        -8.2100    1.3340   -4.1520 ha        1 MOL      0.166064
    142 H63        -6.7690    5.2190   -3.0050 ha        1 MOL      0.166064
    143 H64        -7.5420    2.7470   -5.6530 ho        1 MOL      0.432389
    144 N13        -6.1770   -0.3510   -0.4340 n         1 MOL     -0.060195
    145 C48        -5.8400   -1.7030   -0.8140 c3        1 MOL     -0.241609
    146 C49        -4.9430   -2.4890    0.1420 c         1 MOL      0.390527
    147 O21        -4.8740   -3.7420    0.0870 o         1 MOL     -0.520773
    148 C50        -5.3430   -1.8060   -2.2200 c3        1 MOL      0.092216
    149 C51        -6.3830   -1.4420   -3.2960 c3        1 MOL     -0.278006
    150 C52        -6.0300   -2.1290   -4.5880 c         1 MOL      0.623644
    151 O22        -5.0930   -1.7260   -5.3620 o         1 MOL     -0.700529
    152 O23        -6.5720   -3.2160   -4.7860 o         1 MOL     -0.700529
    153 H65        -5.8330    0.4250   -0.9850 hn        1 MOL      0.343670
    154 H66        -6.7550   -2.2890   -0.8620 h1        1 MOL      0.135440
    155 H67        -5.1380   -2.8590   -2.4030 hc        1 MOL      0.077638
    156 H68        -4.4120   -1.2810   -2.4130 hc        1 MOL      0.077638
    157 H69        -6.4750   -0.3640   -3.3110 hc        1 MOL      0.027267
    158 H70        -7.3810   -1.7130   -2.9360 hc        1 MOL      0.027267
    159 N14        -4.3490   -1.8010    1.1770 n         1 MOL     -0.034531
    160 C53        -3.6200   -2.3540    2.2450 c3        1 MOL     -0.338388
    161 C54        -4.3240   -2.1710    3.6460 c         1 MOL      0.523921
    162 O24        -3.7410   -2.4800    4.6540 o         1 MOL     -0.555724
    163 C55        -2.1220   -1.7510    2.1670 c3        1 MOL      0.033103
    164 C56        -1.5000   -2.1170    0.7610 c3        1 MOL     -0.174684
    165 C57        -0.0450   -1.6180    0.6340 c         1 MOL      0.775817
    166 O25         0.4120   -0.8030    1.3620 o         1 MOL     -0.729537
    167 O26         0.6770   -2.0550   -0.3040 o         1 MOL     -0.729537
    168 H71        -4.3500   -0.7900    1.2170 hn        1 MOL     -0.022903
    169 H72        -3.4650   -3.4240    2.0740 h1        1 MOL      0.174129
    170 H73        -1.5010   -2.2420    2.9180 hc        1 MOL      0.096622
    171 H74        -2.0350   -0.6730    2.2390 hc        1 MOL      0.096622
    172 H75        -2.1060   -1.6590   -0.0250 hc        1 MOL      0.054758
    173 H76        -1.5600   -3.1980    0.8280 hc        1 MOL      0.054758
    174 N15        -5.5680   -1.7420    3.7150 n         1 MOL     -0.191931
    175 C58        -6.3230   -1.5720    4.9580 c3        1 MOL     -0.188667
    176 H77        -7.2170   -0.9790    4.7610 h1        1 MOL      0.076981
    177 H78        -6.6130   -2.5490    5.3440 h1        1 MOL      0.076981
    178 H79        -5.7040   -1.0600    5.6940 h1        1 MOL      0.076981
    179 H80        -5.9650   -1.3630    2.8730 hn        1 MOL      0.213747
    180 Ca1         2.4580   -0.0690    0.0440 Ca        1 MOL      1.764152
    181 O27         5.1100    0.1840    0.5500 oh        1 MOL     -0.913572
    182 H81         5.4150   -0.7280    0.6190 ho        1 MOL      0.430954
    183 H82         5.1940    0.5340    1.4340 ho        1 MOL      0.430954
    184 O28         0.6590    0.7800   -1.7220 oh        1 MOL     -0.913572
    185 O29         2.7950   -0.0810    2.6630 oh        1 MOL     -0.913572
    186 H83         0.9360    1.6780   -1.8890 ho        1 MOL      0.430954
    187 H84         1.9980   -0.5040    2.9690 ho        1 MOL      0.430954
    188 H85         0.9210    0.3040   -2.5070 ho        1 MOL      0.430954
    189 H86         3.3670   -0.0400    3.4300 ho        1 MOL      0.430954
@<TRIPOS>BOND
     1    1    2 1   
     2    1    4 1   
     3    1    5 1   
     4    1    6 1   
     5    2    3 2   
     6    2    7 1   
     7    7    8 1   
     8    7   15 1   
     9    8    9 1   
    10    8   11 1   
    11    8   16 1   
    12    9   10 2   
    13    9   19 1   
    14   11   12 1   
    15   11   17 1   
    16   11   18 1   
    17   12   13 1   
    18   12   14 1   
    19   19   20 1   
    20   19   27 1   
    21   20   21 1   
    22   20   23 1   
    23   20   28 1   
    24   21   22 2   
    25   21   38 1   
    26   23   24 1   
    27   23   25 1   
    28   23   29 1   
    29   24   26 1   
    30   24   30 1   
    31   24   31 1   
    32   25   32 1   
    33   25   33 1   
    34   25   34 1   
    35   26   35 1   
    36   26   36 1   
    37   26   37 1   
    38   38   39 1   
    39   38   46 1   
    40   39   40 1   
    41   39   42 1   
    42   39   47 1   
    43   40   41 2   
    44   40   50 1   
    45   42   43 1   
    46   42   48 1   
    47   42   49 1   
    48   43   44 1   
    49   43   45 1   
    50   50   51 1   
    51   50   54 1   
    52   51   52 1   
    53   51   55 1   
    54   51   56 1   
    55   52   53 2   
    56   52   57 1   
    57   57   58 1   
    58   57   65 1   
    59   58   59 1   
    60   58   61 1   
    61   58   66 1   
    62   59   60 2   
    63   59   69 1   
    64   61   62 1   
    65   61   67 1   
    66   61   68 1   
    67   62   63 1   
    68   62   64 1   
    69   69   70 1   
    70   69   73 1   
    71   70   71 1   
    72   70   74 1   
    73   70   75 1   
    74   71   72 2   
    75   71   76 1   
    76   76   77 1   
    77   76   85 1   
    78   77   78 1   
    79   77   80 1   
    80   77   86 1   
    81   78   79 2   
    82   78   93 1   
    83   80   81 1   
    84   80   87 1   
    85   80   88 1   
    86   81   82 1   
    87   81   89 1   
    88   81   90 1   
    89   82   83 1   
    90   82   84 2   
    91   83   91 1   
    92   83   92 1   
    93   93   94 1   
    94   93  100 1   
    95   94   95 1   
    96   94   97 1   
    97   94  101 1   
    98   95   96 2   
    99   95  109 1   
   100   97   98 1   
   101   97   99 1   
   102   97  102 1   
   103   98  103 1   
   104   98  104 1   
   105   98  105 1   
   106   99  106 1   
   107   99  107 1   
   108   99  108 1   
   109  109  110 1   
   110  109  117 1   
   111  110  111 1   
   112  110  113 1   
   113  110  118 1   
   114  111  112 2   
   115  111  123 1   
   116  113  114 1   
   117  113  119 1   
   118  113  120 1   
   119  114  115 1   
   120  114  116 2   
   121  115  121 1   
   122  115  122 1   
   123  123  124 1   
   124  123  135 1   
   125  124  125 1   
   126  124  127 1   
   127  124  136 1   
   128  125  126 2   
   129  125  144 1   
   130  127  128 1   
   131  127  137 1   
   132  127  138 1   
   133  128  129 ar  
   134  128  130 ar  
   135  129  131 ar  
   136  129  139 1   
   137  130  132 ar  
   138  130  140 1   
   139  131  133 ar  
   140  131  141 1   
   141  132  133 ar  
   142  132  142 1   
   143  133  134 1   
   144  134  143 1   
   145  144  145 1   
   146  144  153 1   
   147  145  146 1   
   148  145  148 1   
   149  145  154 1   
   150  146  147 2   
   151  146  159 1   
   152  148  149 1   
   153  148  155 1   
   154  148  156 1   
   155  149  150 1   
   156  149  157 1   
   157  149  158 1   
   158  150  151 1   
   159  150  152 1   
   160  159  160 1   
   161  159  168 1   
   162  160  161 1   
   163  160  163 1   
   164  160  169 1   
   165  161  162 2   
   166  161  174 1   
   167  163  164 1   
   168  163  170 1   
   169  163  171 1   
   170  164  165 1   
   171  164  172 1   
   172  164  173 1   
   173  165  166 1   
   174  165  167 1   
   175  174  175 1   
   176  174  179 1   
   177  175  176 1   
   178  175  177 1   
   179  175  178 1   
   180  181  182 1   
   181  181  183 1   
   182  184  186 1   
   183  184  188 1   
   184  185  187 1   
   185  185  189 1   
@<TRIPOS>SUBSTRUCTURE
     1 MOL         1 TEMP              0 ****  ****    0 ROOT
