@<TRIPOS>MOLECULE
MOL
  182   178     1     0     0
SMALL
resp


@<TRIPOS>ATOM
      1 C1         -1.2000   -3.4430    5.9200 c3        1 MOL     -0.338691
      2 C2         -0.8970   -2.8800    4.4860 c         1 MOL      0.731661
      3 O1         -1.8680   -2.6900    3.7350 o         1 MOL     -0.620567
      4 H1         -0.4240   -4.1540    6.2020 hc        1 MOL      0.088735
      5 H2         -1.2170   -2.6220    6.6370 hc        1 MOL      0.088735
      6 H3         -2.1680   -3.9440    5.9170 hc        1 MOL      0.088735
      7 N1          0.3200   -2.7400    4.0250 n         1 MOL     -0.589755
      8 C3          0.6660   -2.4500    2.7000 c3        1 MOL      0.249300
      9 C4          0.5670   -3.7580    1.8290 c         1 MOL      0.491804
     10 O2          1.2140   -4.6910    2.1520 o         1 MOL     -0.522443
     11 C5          2.1060   -1.9130    2.8510 c3        1 MOL     -0.082105
     12 C6          2.7210   -1.4000    1.5880 c         1 MOL      0.575381
     13 O3          2.3790   -1.8290    0.4780 o         1 MOL     -0.661062
     14 O4          3.6590   -0.5640    1.7410 o         1 MOL     -0.661062
     15 H4          1.1190   -2.9930    4.5910 hn        1 MOL      0.299351
     16 H5         -0.0260   -1.7200    2.2930 h1        1 MOL     -0.154094
     17 H6          2.7140   -2.6850    3.3120 hc        1 MOL      0.049567
     18 H7          2.1070   -1.0790    3.5610 hc        1 MOL      0.049567
     19 N2         -0.2500   -3.7340    0.7340 n         1 MOL     -0.319122
     20 C7         -0.3900   -4.9260   -0.1530 c3        1 MOL     -0.016527
     21 C8          0.6990   -5.0950   -1.1890 c         1 MOL      0.374659
     22 O5          0.6640   -5.9650   -2.0370 o         1 MOL     -0.569491
     23 C9         -1.7850   -5.0600   -0.7600 c3        1 MOL      0.028609
     24 C10        -2.9190   -4.6210    0.2790 c3        1 MOL     -0.058381
     25 C11        -4.2910   -4.6470   -0.3040 c3        1 MOL      0.016400
     26 C12        -4.6850   -6.0250   -0.7960 c3        1 MOL     -0.060829
     27 N3         -4.9150   -6.9790    0.3880 n4        1 MOL     -0.285844
     28 H8         -0.6370   -2.8730    0.3670 hn        1 MOL      0.349683
     29 H9         -0.3140   -5.7800    0.5280 h1        1 MOL      0.079308
     30 H10        -1.9100   -6.0340   -1.2190 hc        1 MOL      0.015420
     31 H11        -1.8810   -4.3620   -1.5990 hc        1 MOL      0.015420
     32 H12        -2.8100   -3.6020    0.6630 hc        1 MOL      0.019346
     33 H13        -2.7760   -5.3540    1.0770 hc        1 MOL      0.019346
     34 H14        -4.3700   -4.0810   -1.2260 hc        1 MOL      0.081345
     35 H15        -4.9660   -4.2890    0.4680 hc        1 MOL      0.081345
     36 H16        -3.8630   -6.3880   -1.4030 hx        1 MOL      0.090243
     37 H17        -5.6180   -5.9100   -1.3440 hx        1 MOL      0.090243
     38 H18        -5.3000   -7.8750    0.1160 hn        1 MOL      0.308240
     39 H19        -4.0540   -7.3190    0.7840 hn        1 MOL      0.308240
     40 H20        -5.5750   -6.6490    1.0740 hn        1 MOL      0.308240
     41 N4          1.8310   -4.3550   -1.1410 n         1 MOL      0.148091
     42 C13         3.1580   -4.9280   -1.6940 c3        1 MOL     -0.005883
     43 C14         4.4020   -4.6170   -0.8240 c         1 MOL      0.325005
     44 O6          5.5270   -5.1660   -1.0210 o         1 MOL     -0.505112
     45 C15         3.3590   -4.4480   -3.1330 c3        1 MOL     -0.161825
     46 C16         3.3500   -2.9730   -3.3640 c         1 MOL      0.847399
     47 O7          3.3590   -2.5010   -4.5120 o         1 MOL     -0.750436
     48 O8          3.3190   -2.1440   -2.4240 o         1 MOL     -0.750436
     49 H21         1.8700   -3.7050   -0.3770 hn        1 MOL     -0.186889
     50 H22         3.0990   -6.0140   -1.7340 h1        1 MOL      0.109252
     51 H23         2.5140   -4.7950   -3.7350 hc        1 MOL      0.043774
     52 H24         4.2310   -4.9940   -3.4850 hc        1 MOL      0.043774
     53 N5          4.2010   -3.8460    0.2570 n         1 MOL     -0.069580
     54 C17         5.2470   -3.5840    1.3050 c3        1 MOL     -0.253769
     55 C18         6.1930   -2.5050    0.9190 c         1 MOL      0.599331
     56 O9          7.1850   -2.3370    1.5430 o         1 MOL     -0.563322
     57 H25         3.4100   -3.2260    0.1800 hn        1 MOL      0.040509
     58 H26         5.7850   -4.4860    1.6090 h1        1 MOL      0.141239
     59 H27         4.7600   -3.1600    2.1770 h1        1 MOL      0.141239
     60 N6          5.8810   -1.6570   -0.1460 n         1 MOL     -0.371307
     61 C19         6.6730   -0.5900   -0.6470 c3        1 MOL      0.028901
     62 C20         6.7860    0.7000    0.1490 c         1 MOL      0.311027
     63 O10         7.4730    1.6100   -0.2680 o         1 MOL     -0.471582
     64 C21         6.3050   -0.3810   -2.0630 c3        1 MOL     -0.203863
     65 C22         5.1290    0.5760   -2.2520 c         1 MOL      0.674765
     66 N7          5.1280    1.3200   -3.3210 n         1 MOL     -0.725531
     67 O11         4.1960    0.6710   -1.4350 o         1 MOL     -0.522331
     68 H28         5.0160   -1.9540   -0.5880 hn        1 MOL      0.276588
     69 H29         7.7000   -0.9600   -0.6410 h1        1 MOL      0.122322
     70 H30         6.1150   -1.3010   -2.6090 hc        1 MOL      0.061656
     71 H31         7.1490    0.2030   -2.4270 hc        1 MOL      0.061656
     72 H32         5.9070    1.2090   -3.9470 hn        1 MOL      0.344559
     73 H33         4.4250    2.0180   -3.4830 hn        1 MOL      0.344559
     74 N8          6.0490    0.8590    1.2890 n         1 MOL     -0.141097
     75 C23         6.0810    2.0650    2.1370 c3        1 MOL     -0.317195
     76 C24         4.8360    2.9180    2.0270 c         1 MOL      0.762837
     77 O12         4.7910    3.9180    2.7140 o         1 MOL     -0.617070
     78 H34         5.4570    0.0660    1.4910 hn        1 MOL      0.240475
     79 H35         6.9380    2.7230    1.9780 h1        1 MOL      0.139347
     80 H36         6.1040    1.7720    3.1870 h1        1 MOL      0.139347
     81 N9          3.8240    2.5630    1.2430 n         1 MOL     -0.643327
     82 C25         2.6400    3.4120    1.0500 c3        1 MOL      0.303011
     83 C26         1.3630    2.5620    0.9420 c         1 MOL      0.420862
     84 O13         1.4060    1.4060    0.5010 o         1 MOL     -0.580706
     85 C27         2.7350    4.2720   -0.2250 c3        1 MOL      0.031152
     86 C28         4.0020    5.2240   -0.1100 ca        1 MOL     -0.239287
     87 C29         5.3010    4.7450   -0.4580 ca        1 MOL      0.044501
     88 C30         3.8890    6.5010    0.4640 ca        1 MOL      0.044501
     89 C31         6.3560    5.6720   -0.5070 ca        1 MOL     -0.339086
     90 C32         4.9140    7.3960    0.2460 ca        1 MOL     -0.339086
     91 C33         6.1350    7.0100   -0.1950 ca        1 MOL      0.417403
     92 O14         7.1820    7.8490   -0.3290 oh        1 MOL     -0.484718
     93 H37         3.9100    1.6770    0.7580 hn        1 MOL      0.371629
     94 H38         2.5410    4.0590    1.9320 h1        1 MOL      0.023056
     95 H39         1.7980    4.8240   -0.2890 hc        1 MOL      0.014559
     96 H40         2.9460    3.6250   -1.0780 hc        1 MOL      0.014559
     97 H41         5.4660    3.7100   -0.7120 ha        1 MOL      0.075241
     98 H42         2.9070    6.7920    0.8120 ha        1 MOL      0.075241
     99 H43         7.4180    5.4700   -0.6010 ha        1 MOL      0.135767
    100 H44         4.7760    8.4210    0.5750 ha        1 MOL      0.135767
    101 H45         7.0230    8.6890    0.0860 ho        1 MOL      0.346285
    102 N10         0.2130    3.1470    1.3080 n         1 MOL     -0.439239
    103 C34        -1.1400    2.5580    1.1890 c3        1 MOL      0.180536
    104 C35        -2.1190    3.5310    0.3820 c         1 MOL      0.443449
    105 O15        -2.2140    4.7540    0.6530 o         1 MOL     -0.549779
    106 C36        -1.6230    2.3710    2.7200 c3        1 MOL     -0.151589
    107 C37        -0.9210    1.0720    3.3480 c3        1 MOL      0.059028
    108 C38        -3.1710    2.2520    2.8480 c3        1 MOL     -0.105149
    109 C39        -0.8600    0.9880    4.8810 c3        1 MOL     -0.378552
    110 H46         0.2840    3.9870    1.8730 hn        1 MOL      0.270276
    111 H47        -1.1240    1.5750    0.7330 h1        1 MOL      0.048232
    112 H48        -1.2670    3.2610    3.2420 hc        1 MOL      0.067751
    113 H49         0.1500    1.1080    3.1330 hc        1 MOL      0.089288
    114 H50        -1.4610    0.2190    2.9340 hc        1 MOL      0.089288
    115 H51        -3.5830    3.2360    2.6260 hc        1 MOL      0.035113
    116 H52        -3.6140    1.4370    2.2750 hc        1 MOL      0.035113
    117 H53        -3.4640    2.1690    3.8890 hc        1 MOL      0.035113
    118 H54        -1.7390    0.5210    5.3300 hc        1 MOL      0.093734
    119 H55         0.0450    0.4270    5.1140 hc        1 MOL      0.093734
    120 H56        -0.7820    2.0420    5.1600 hc        1 MOL      0.093734
    121 N11        -2.7590    2.9520   -0.5780 n         1 MOL     -0.324061
    122 C40        -3.8430    3.6140   -1.3420 c3        1 MOL      0.023027
    123 C41        -5.2170    3.6230   -0.5870 c         1 MOL      0.485207
    124 O16        -5.4220    2.9190    0.4120 o         1 MOL     -0.431919
    125 C42        -3.9700    3.0050   -2.7790 c3        1 MOL     -0.258597
    126 O17        -4.5310    1.6830   -2.8380 oh        1 MOL     -0.398602
    127 H57        -2.5740    1.9620   -0.6290 hn        1 MOL      0.351083
    128 H58        -3.7530    4.6940   -1.4410 h1        1 MOL      0.091866
    129 H59        -2.9710    2.9800   -3.2080 h1        1 MOL      0.137146
    130 H60        -4.6470    3.6230   -3.3690 h1        1 MOL      0.137146
    131 H61        -3.8040    1.1140   -3.0920 ho        1 MOL      0.372011
    132 N12        -6.1950    4.4040   -1.0070 n         1 MOL     -0.424463
    133 C43        -7.6370    4.2190   -0.5770 c3        1 MOL      0.146001
    134 C44        -8.1010    2.7860   -0.7720 c         1 MOL      0.448167
    135 O18        -8.9680    2.3500   -0.0180 o         1 MOL     -0.513386
    136 C45        -8.5620    5.1040   -1.2970 c3        1 MOL     -0.311699
    137 H62        -6.0430    5.1580   -1.6670 hn        1 MOL      0.276311
    138 H63        -7.6600    4.4360    0.4910 h1        1 MOL      0.083538
    139 H64        -8.2790    6.1300   -1.0590 hc        1 MOL      0.100224
    140 H65        -8.6340    4.9120   -2.3750 hc        1 MOL      0.100224
    141 H66        -9.5550    5.0140   -0.8660 hc        1 MOL      0.100224
    142 N13        -7.5750    2.0500   -1.7620 n         1 MOL     -0.330602
    143 C46        -7.9220    0.6640   -2.0590 c3        1 MOL      0.064171
    144 C47        -7.3040   -0.3890   -1.1460 c         1 MOL      0.437184
    145 O19        -7.9370   -1.3830   -0.7640 o         1 MOL     -0.521168
    146 C48        -7.6410    0.4070   -3.5550 c3        1 MOL     -0.128214
    147 H67        -7.0230    2.5310   -2.4630 hn        1 MOL      0.278789
    148 H68        -9.0030    0.5160   -1.9920 h1        1 MOL      0.086092
    149 H69        -6.5560    0.3920   -3.6530 hc        1 MOL      0.036980
    150 H70        -8.0710   -0.5740   -3.7520 hc        1 MOL      0.036980
    151 H71        -7.9900    1.1040   -4.3160 hc        1 MOL      0.036980
    152 N14        -6.0370   -0.1190   -0.7730 n         1 MOL     -0.115695
    153 C49        -5.3020   -0.9340    0.2120 c3        1 MOL      0.016981
    154 C50        -5.7640   -0.6590    1.6220 c         1 MOL      0.462406
    155 O20        -5.7090   -1.5990    2.4460 o         1 MOL     -0.554174
    156 C51        -3.8090   -0.5820    0.2000 c3        1 MOL     -0.126988
    157 C52        -3.0810   -1.0590   -1.0380 c3        1 MOL      0.088862
    158 C53        -1.6380   -0.5360   -1.0220 c         1 MOL      0.569597
    159 O21        -0.7250   -1.2270   -0.5530 o         1 MOL     -0.680848
    160 O22        -1.4000    0.5640   -1.4540 o         1 MOL     -0.680848
    161 H72        -5.6920    0.8010   -0.9910 hn        1 MOL     -0.115461
    162 H73        -5.4270   -2.0060    0.0640 h1        1 MOL     -0.012367
    163 H74        -3.3730   -1.1050    1.0550 hc        1 MOL      0.089075
    164 H75        -3.6520    0.4870    0.2810 hc        1 MOL      0.089075
    165 H76        -3.5180   -0.6250   -1.9400 hc        1 MOL     -0.051396
    166 H77        -3.0760   -2.1230   -1.2830 hc        1 MOL     -0.051396
    167 N15        -6.1880    0.5680    1.9060 n         1 MOL     -0.087557
    168 C54        -6.8790    0.8430    3.1660 c3        1 MOL     -0.267100
    169 H78        -7.5330    1.7060    3.0400 h1        1 MOL      0.106580
    170 H79        -7.4730   -0.0250    3.4530 h1        1 MOL      0.106580
    171 H80        -6.1460    1.0550    3.9450 h1        1 MOL      0.106580
    172 H81        -6.0620    1.3600    1.2940 hn        1 MOL      0.181769
    173 Ca1         1.4660   -0.5020   -1.4950 Ca        1 MOL      1.828316
    174 O23         1.2840    1.9450   -2.3110 oh        1 MOL     -0.945403
    175 H82         0.4980    2.4280   -2.5610 ho        1 MOL      0.436800
    176 H83         1.9120    2.1240   -3.0240 ho        1 MOL      0.436800
    177 O24         0.0100   -2.3050   -3.1220 oh        1 MOL     -0.945403
    178 H84        -0.8960   -2.6200   -3.1590 ho        1 MOL      0.436800
    179 H85         0.2310   -2.1000   -4.0400 ho        1 MOL      0.436800
    180 O25         2.4820   -0.1030   -3.9120 oh        1 MOL     -0.945403
    181 H86         2.5040    0.1570   -4.8300 ho        1 MOL      0.436800
    182 H87         3.0670   -0.8570   -3.8530 ho        1 MOL      0.436800
@<TRIPOS>BOND
     1    1    2 1   
     2    1    4 1   
     3    1    5 1   
     4    1    6 1   
     5    2    3 2   
     6    2    7 1   
     7    7    8 1   
     8    7   15 1   
     9    8    9 1   
    10    8   11 1   
    11    8   16 1   
    12    9   10 2   
    13    9   19 1   
    14   11   12 1   
    15   11   17 1   
    16   11   18 1   
    17   12   13 1   
    18   12   14 1   
    19   19   20 1   
    20   19   28 1   
    21   20   21 1   
    22   20   23 1   
    23   20   29 1   
    24   21   22 2   
    25   21   41 1   
    26   23   24 1   
    27   23   30 1   
    28   23   31 1   
    29   24   25 1   
    30   24   32 1   
    31   24   33 1   
    32   25   26 1   
    33   25   34 1   
    34   25   35 1   
    35   26   27 1   
    36   26   36 1   
    37   26   37 1   
    38   27   38 1   
    39   27   39 1   
    40   27   40 1   
    41   41   42 1   
    42   41   49 1   
    43   42   43 1   
    44   42   45 1   
    45   42   50 1   
    46   43   44 2   
    47   43   53 1   
    48   45   46 1   
    49   45   51 1   
    50   45   52 1   
    51   46   47 1   
    52   46   48 1   
    53   53   54 1   
    54   53   57 1   
    55   54   55 1   
    56   54   58 1   
    57   54   59 1   
    58   55   56 2   
    59   55   60 1   
    60   60   61 1   
    61   60   68 1   
    62   61   62 1   
    63   61   64 1   
    64   61   69 1   
    65   62   63 2   
    66   62   74 1   
    67   64   65 1   
    68   64   70 1   
    69   64   71 1   
    70   65   66 1   
    71   65   67 2   
    72   66   72 1   
    73   66   73 1   
    74   74   75 1   
    75   74   78 1   
    76   75   76 1   
    77   75   79 1   
    78   75   80 1   
    79   76   77 2   
    80   76   81 1   
    81   81   82 1   
    82   81   93 1   
    83   82   83 1   
    84   82   85 1   
    85   82   94 1   
    86   83   84 2   
    87   83  102 1   
    88   85   86 1   
    89   85   95 1   
    90   85   96 1   
    91   86   87 ar  
    92   86   88 ar  
    93   87   89 ar  
    94   87   97 1   
    95   88   90 ar  
    96   88   98 1   
    97   89   91 ar  
    98   89   99 1   
    99   90   91 ar  
   100   90  100 1   
   101   91   92 1   
   102   92  101 1   
   103  102  103 1   
   104  102  110 1   
   105  103  104 1   
   106  103  106 1   
   107  103  111 1   
   108  104  105 2   
   109  104  121 1   
   110  106  107 1   
   111  106  108 1   
   112  106  112 1   
   113  107  109 1   
   114  107  113 1   
   115  107  114 1   
   116  108  115 1   
   117  108  116 1   
   118  108  117 1   
   119  109  118 1   
   120  109  119 1   
   121  109  120 1   
   122  121  122 1   
   123  121  127 1   
   124  122  123 1   
   125  122  125 1   
   126  122  128 1   
   127  123  124 2   
   128  123  132 1   
   129  125  126 1   
   130  125  129 1   
   131  125  130 1   
   132  126  131 1   
   133  132  133 1   
   134  132  137 1   
   135  133  134 1   
   136  133  136 1   
   137  133  138 1   
   138  134  135 2   
   139  134  142 1   
   140  136  139 1   
   141  136  140 1   
   142  136  141 1   
   143  142  143 1   
   144  142  147 1   
   145  143  144 1   
   146  143  146 1   
   147  143  148 1   
   148  144  145 2   
   149  144  152 1   
   150  146  149 1   
   151  146  150 1   
   152  146  151 1   
   153  152  153 1   
   154  152  161 1   
   155  153  154 1   
   156  153  156 1   
   157  153  162 1   
   158  154  155 2   
   159  154  167 1   
   160  156  157 1   
   161  156  163 1   
   162  156  164 1   
   163  157  158 1   
   164  157  165 1   
   165  157  166 1   
   166  158  159 1   
   167  158  160 1   
   168  167  168 1   
   169  167  172 1   
   170  168  169 1   
   171  168  170 1   
   172  168  171 1   
   173  174  175 1   
   174  174  176 1   
   175  177  178 1   
   176  177  179 1   
   177  180  181 1   
   178  180  182 1   
@<TRIPOS>SUBSTRUCTURE
     1 MOL         1 TEMP              0 ****  ****    0 ROOT
