@<TRIPOS>MOLECULE
MOL
  189   185     1     0     0
SMALL
resp


@<TRIPOS>ATOM
      1 C1          0.2220    2.3850    5.9100 c3        1 MOL     -0.303306
      2 C2         -0.3010    2.4210    4.4170 c         1 MOL      0.658598
      3 O1          0.4820    2.9060    3.5770 o         1 MOL     -0.580603
      4 H1         -0.5990    2.1140    6.5750 hc        1 MOL      0.081792
      5 H2          1.0190    1.6480    6.0000 hc        1 MOL      0.081792
      6 H3          0.6020    3.3690    6.1870 hc        1 MOL      0.081792
      7 N1         -1.5500    2.1210    4.1010 n         1 MOL     -0.632525
      8 C3         -2.1150    1.8730    2.7290 c3        1 MOL      0.362020
      9 C4         -2.5740    3.2140    2.0360 c         1 MOL      0.139764
     10 O2         -3.4680    3.9070    2.5180 o         1 MOL     -0.484290
     11 C5         -3.3150    0.9110    2.8780 c3        1 MOL     -0.332361
     12 C6         -3.9530    0.4480    1.5520 c         1 MOL      0.894984
     13 O3         -3.4020    0.6450    0.4930 o         1 MOL     -0.728301
     14 O4         -5.0380   -0.1630    1.5880 o         1 MOL     -0.728301
     15 H4         -2.2190    1.8960    4.8200 hn        1 MOL      0.349186
     16 H5         -1.4550    1.3230    2.0550 h1        1 MOL      0.001739
     17 H6         -4.0140    1.4870    3.4800 hc        1 MOL      0.068374
     18 H7         -3.0490    0.0820    3.5300 hc        1 MOL      0.068374
     19 N2         -1.9490    3.5350    0.9000 n         1 MOL     -0.077108
     20 C7         -2.0280    4.8870    0.2990 c3        1 MOL     -0.020866
     21 C8         -3.0540    5.0430   -0.8120 c         1 MOL      0.524551
     22 O5         -3.2090    6.1680   -1.3550 o         1 MOL     -0.598453
     23 C9         -0.6680    5.3660   -0.2780 c3        1 MOL      0.176853
     24 C10         0.3980    5.5180    0.8270 c3        1 MOL      0.110060
     25 C11         0.1010    6.5710    1.8970 c3        1 MOL     -0.083882
     26 C12        -0.2790    5.9380    3.1920 c3        1 MOL      0.294302
     27 N3         -0.5790    6.9850    4.1780 n4        1 MOL     -0.579565
     28 H8         -1.3480    2.8340    0.4760 hn        1 MOL      0.159015
     29 H9         -2.3490    5.5600    1.0880 h1        1 MOL      0.020574
     30 H10        -0.7400    6.2390   -0.9270 hc        1 MOL     -0.033616
     31 H11        -0.2810    4.5330   -0.8760 hc        1 MOL     -0.033616
     32 H12         1.3060    5.8580    0.3160 hc        1 MOL     -0.028357
     33 H13         0.6060    4.5910    1.3520 hc        1 MOL     -0.028357
     34 H14        -0.6600    7.2310    1.4920 hc        1 MOL     -0.001297
     35 H15         0.9730    7.1790    2.1450 hc        1 MOL     -0.001297
     36 H16         0.4380    5.2360    3.6310 hx        1 MOL      0.029366
     37 H17        -1.1280    5.2680    3.0410 hx        1 MOL      0.029366
     38 H18        -0.3140    6.5850    5.0650 hn        1 MOL      0.369223
     39 H19         0.0780    7.7390    4.0520 hn        1 MOL      0.369223
     40 H20        -1.5200    7.3310    4.0520 hn        1 MOL      0.369223
     41 N4         -3.6260    3.9680   -1.2300 n         1 MOL     -0.429148
     42 C13        -4.5930    3.7670   -2.3330 c3        1 MOL      0.200451
     43 C14        -5.7090    2.8650   -2.0020 c         1 MOL      0.378040
     44 O6         -6.7070    2.9750   -2.7450 o         1 MOL     -0.527271
     45 C15        -3.8880    3.2720   -3.6180 c3        1 MOL     -0.461123
     46 C16        -3.0830    1.9780   -3.4380 c         1 MOL      0.817806
     47 O7         -2.5230    1.5150   -4.4380 o         1 MOL     -0.703816
     48 O8         -2.9090    1.4290   -2.3020 o         1 MOL     -0.703816
     49 H21        -3.3220    3.1470   -0.7260 hn        1 MOL      0.265375
     50 H22        -5.0410    4.7350   -2.5550 h1        1 MOL      0.070161
     51 H23        -3.2410    4.1060   -3.9200 hc        1 MOL      0.135745
     52 H24        -4.7070    3.1030   -4.3180 hc        1 MOL      0.135745
     53 N5         -5.6710    2.0150   -0.9880 n         1 MOL     -0.259125
     54 C17        -6.8460    1.4000   -0.5170 c3        1 MOL     -0.162877
     55 C18        -7.2210    0.0930   -1.2840 c         1 MOL      0.497899
     56 O9         -8.3700   -0.2780   -1.4000 o         1 MOL     -0.560654
     57 H25        -4.7890    1.7620   -0.5630 hn        1 MOL      0.252624
     58 H26        -7.6560    2.1250   -0.4690 h1        1 MOL      0.107861
     59 H27        -6.5700    1.1690    0.5100 h1        1 MOL      0.107861
     60 N6         -6.2480   -0.7260   -1.7470 n         1 MOL     -0.128053
     61 C19        -6.5680   -2.1150   -2.1220 c3        1 MOL     -0.099364
     62 C20        -6.7120   -3.1380   -0.9670 c         1 MOL      0.456728
     63 O10        -7.0470   -4.2790   -1.2260 o         1 MOL     -0.516805
     64 C21        -5.5100   -2.6080   -3.0960 c3        1 MOL     -0.286654
     65 C22        -4.0500   -2.3210   -2.7710 c         1 MOL      0.756856
     66 O11        -3.2440   -2.2270   -3.7080 o         1 MOL     -0.681916
     67 O12        -3.6270   -2.2480   -1.6150 o         1 MOL     -0.681916
     68 H28        -5.2550   -0.5560   -1.6340 hn        1 MOL      0.069570
     69 H29        -7.5480   -2.0360   -2.5880 h1        1 MOL      0.147663
     70 H30        -5.7400   -2.0940   -4.0260 hc        1 MOL      0.097528
     71 H31        -5.5240   -3.6760   -3.3390 hc        1 MOL      0.097528
     72 N7         -6.4580   -2.7190    0.2990 n         1 MOL     -0.302686
     73 C23        -6.4270   -3.5920    1.5140 c3        1 MOL     -0.070795
     74 C24        -5.1590   -4.2120    1.8160 c         1 MOL      0.628709
     75 O13        -5.1780   -5.1640    2.5980 o         1 MOL     -0.588092
     76 H32        -6.1640   -1.7640    0.4160 hn        1 MOL      0.251375
     77 H33        -7.2140   -4.3300    1.3670 h1        1 MOL      0.084039
     78 H34        -6.6990   -3.1120    2.4480 h1        1 MOL      0.084039
     79 N8         -4.0110   -3.7290    1.2190 n         1 MOL     -0.416725
     80 C25        -2.7170   -4.4490    1.2120 c3        1 MOL     -0.121496
     81 C26        -1.5990   -3.3080    1.2210 c         1 MOL      0.677906
     82 O14        -1.8320   -2.1950    0.7650 o         1 MOL     -0.662967
     83 C27        -2.5460   -5.3670   -0.0200 c3        1 MOL      0.469218
     84 C28        -2.5850   -6.8580    0.3680 c3        1 MOL     -0.148619
     85 O15        -3.5210   -5.1250   -1.0020 oh        1 MOL     -0.608265
     86 H35        -4.0820   -2.8640    0.7060 hn        1 MOL      0.218981
     87 H36        -2.5910   -5.0560    2.1120 h1        1 MOL      0.089361
     88 H37        -1.5260   -5.2660   -0.3950 h1        1 MOL     -0.057365
     89 H38        -3.7140   -4.1910   -1.0500 ho        1 MOL      0.404692
     90 H39        -1.8850   -6.9280    1.1910 hc        1 MOL      0.027415
     91 H40        -3.5650   -7.1560    0.7540 hc        1 MOL      0.027415
     92 H41        -2.3130   -7.5730   -0.4060 hc        1 MOL      0.027415
     93 N9         -0.4850   -3.6050    1.9110 n         1 MOL     -0.541142
     94 C29         0.6800   -2.6480    2.0970 c3        1 MOL     -0.131235
     95 C30         1.8530   -3.2040    1.2350 c         1 MOL      0.440871
     96 O16         2.3000   -4.3410    1.3550 o         1 MOL     -0.540171
     97 C31         1.1470   -2.4390    3.5720 c3        1 MOL      0.242134
     98 C32        -0.1260   -2.5210    4.5780 c3        1 MOL      0.058954
     99 C33         2.1000   -1.2300    3.6940 c3        1 MOL     -0.620319
    100 C34         0.2930   -2.7950    6.0330 c3        1 MOL     -0.335004
    101 H42        -0.4540   -4.5250    2.3210 hn        1 MOL      0.322506
    102 H43         0.3710   -1.7350    1.5830 h1        1 MOL      0.156985
    103 H44         1.7910   -3.2980    3.7540 hc        1 MOL      0.020938
    104 H45        -0.8010   -3.2930    4.2090 hc        1 MOL      0.015211
    105 H46        -0.7060   -1.5950    4.5540 hc        1 MOL      0.015211
    106 H47         1.5660   -0.3300    3.4160 hc        1 MOL      0.152203
    107 H48         2.4270   -1.1720    4.7330 hc        1 MOL      0.152203
    108 H49         2.8750   -1.3070    2.9370 hc        1 MOL      0.152203
    109 H50        -0.5500   -2.7910    6.7180 hc        1 MOL      0.085527
    110 H51         0.9890   -3.6360    6.1140 hc        1 MOL      0.085527
    111 H52         0.9330   -1.9540    6.3070 hc        1 MOL      0.085527
    112 N10         2.4180   -2.3860    0.3410 n         1 MOL      0.020457
    113 C35         3.6120   -2.7070   -0.4050 c3        1 MOL     -0.026378
    114 C36         5.0020   -2.4670    0.2870 c         1 MOL      0.301292
    115 O17         5.1670   -1.6440    1.1350 o         1 MOL     -0.252224
    116 C37         3.5950   -1.9680   -1.7170 c3        1 MOL      0.091417
    117 C38         2.5050   -2.3030   -2.5930 c3        1 MOL     -0.155422
    118 O18         3.5580   -0.6050   -1.4420 oh        1 MOL     -0.414243
    119 H53         1.9050   -1.5720    0.0260 hn        1 MOL      0.063811
    120 H54         3.6690   -3.7570   -0.6800 h1        1 MOL      0.038490
    121 H55         4.5390   -2.1540   -2.2210 h1        1 MOL      0.092527
    122 H56         2.6400   -0.3370   -1.5530 ho        1 MOL      0.354160
    123 H57         2.0210   -1.3880   -2.9390 hc        1 MOL      0.050299
    124 H58         2.9290   -2.7730   -3.4790 hc        1 MOL      0.050299
    125 H59         1.7550   -3.0190   -2.2500 hc        1 MOL      0.050299
    126 N11         6.0700   -3.0800   -0.3330 n         1 MOL     -0.311028
    127 C39         7.4820   -2.6550   -0.1200 c3        1 MOL     -0.180349
    128 C40         7.7000   -1.2050   -0.3420 c         1 MOL      0.408233
    129 O19         8.4380   -0.5380    0.3230 o         1 MOL     -0.471422
    130 C41         8.5220   -3.4500   -0.9070 c3        1 MOL      0.311283
    131 C42         8.4400   -4.9080   -0.5280 c3        1 MOL     -0.395055
    132 O20         8.2220   -3.4110   -2.2690 oh        1 MOL     -0.644254
    133 H60         5.8900   -3.7050   -1.1060 hn        1 MOL      0.280703
    134 H61         7.7660   -2.8630    0.9150 h1        1 MOL      0.143981
    135 H62         9.5030   -3.0090   -0.7200 h1        1 MOL      0.054027
    136 H63         8.9130   -3.8840   -2.7450 ho        1 MOL      0.423771
    137 H64         8.5950   -5.0670    0.5460 hc        1 MOL      0.109949
    138 H65         7.4640   -5.3460   -0.7680 hc        1 MOL      0.109949
    139 H66         9.1710   -5.4030   -1.1720 hc        1 MOL      0.109949
    140 N12         6.9120   -0.6550   -1.2710 n         1 MOL     -0.079039
    141 C43         6.9150    0.7790   -1.5420 c3        1 MOL     -0.301444
    142 C44         6.3320    1.4840   -0.3910 c         1 MOL      0.426575
    143 O21         7.0630    2.2740    0.2430 o         1 MOL     -0.464456
    144 C45         6.2480    1.1040   -2.9220 c3        1 MOL      0.229946
    145 C46         6.4340    2.5350   -3.3010 c3        1 MOL     -0.109115
    146 C47         5.4440    2.9780   -4.4480 c3        1 MOL     -0.058171
    147 C48         5.9280    2.3630   -5.7790 c3        1 MOL      0.110971
    148 N13         5.0170    2.7080   -6.8550 n4        1 MOL     -0.534489
    149 H67         6.4760   -1.3170   -1.8920 hn        1 MOL      0.125691
    150 H68         7.9650    1.0570   -1.6460 h1        1 MOL      0.153503
    151 H69         5.1940    0.8770   -2.8280 hc        1 MOL     -0.058227
    152 H70         6.7050    0.5250   -3.7220 hc        1 MOL     -0.058227
    153 H71         7.4760    2.5770   -3.6190 hc        1 MOL      0.056757
    154 H72         6.4440    3.2090   -2.4460 hc        1 MOL      0.056757
    155 H73         5.5220    4.0600   -4.5500 hc        1 MOL      0.050301
    156 H74         4.4140    2.7460   -4.1730 hc        1 MOL      0.050301
    157 H75         6.0440    1.3060   -5.5180 hx        1 MOL      0.074587
    158 H76         6.9060    2.7850   -5.9990 hx        1 MOL      0.074587
    159 H77         4.0470    2.4930   -6.6510 hn        1 MOL      0.375995
    160 H78         5.2450    3.6400   -7.1460 hn        1 MOL      0.375995
    161 H79         5.0780    2.1310   -7.6810 hn        1 MOL      0.375995
    162 N14         5.0390    1.2780   -0.0050 n         1 MOL     -0.174158
    163 C49         4.3210    1.9550    1.1030 c3        1 MOL     -0.009372
    164 C50         4.9500    1.7640    2.5030 c         1 MOL      0.322120
    165 O22         5.2750    2.7780    3.1540 o         1 MOL     -0.531516
    166 C51         2.9530    1.3210    1.1100 c3        1 MOL      0.126549
    167 C52         1.9660    1.9710    0.1370 c3        1 MOL      0.033808
    168 C53         0.6870    1.1180   -0.1620 c         1 MOL      0.629474
    169 O23        -0.4500    1.6590   -0.3460 o         1 MOL     -0.710608
    170 O24         0.7240   -0.1190   -0.3030 o         1 MOL     -0.710608
    171 H80         4.4540    0.6610   -0.5500 hn        1 MOL      0.090219
    172 H81         4.2480    3.0370    0.9330 h1        1 MOL      0.044682
    173 H82         2.4730    1.5270    2.0580 hc        1 MOL     -0.021923
    174 H83         3.0340    0.2500    0.9330 hc        1 MOL     -0.021923
    175 H84         2.4520    2.1070   -0.8280 hc        1 MOL     -0.027772
    176 H85         1.7330    3.0150    0.3610 hc        1 MOL     -0.027772
    177 N15         5.3270    0.5380    2.8130 n         1 MOL      0.051359
    178 C54         6.0530    0.1520    4.0610 c3        1 MOL     -0.258037
    179 H86         5.3870    0.2590    4.9160 h1        1 MOL      0.099640
    180 H87         6.3820   -0.8840    3.9840 h1        1 MOL      0.099640
    181 H88         6.9200    0.8000    4.1930 h1        1 MOL      0.099640
    182 H89         5.1170   -0.2030    2.1660 hn        1 MOL      0.035490
    183 Ca1        -1.7070   -0.4540   -1.1680 Ca        1 MOL      1.759506
    184 O25        -0.4760    0.3020   -3.3720 oh        1 MOL     -0.898100
    185 H90         0.3770    0.5790   -3.6990 ho        1 MOL      0.404946
    186 H91        -1.1030    0.7150   -3.9610 ho        1 MOL      0.404946
    187 O26        -0.8960   -2.6020   -2.5990 oh        1 MOL     -0.898100
    188 H92        -0.2710   -3.0100   -3.2020 ho        1 MOL      0.404946
    189 H93        -1.6140   -2.3040   -3.1570 ho        1 MOL      0.404946
@<TRIPOS>BOND
     1    1    2 1   
     2    1    4 1   
     3    1    5 1   
     4    1    6 1   
     5    2    3 2   
     6    2    7 1   
     7    7    8 1   
     8    7   15 1   
     9    8    9 1   
    10    8   11 1   
    11    8   16 1   
    12    9   10 2   
    13    9   19 1   
    14   11   12 1   
    15   11   17 1   
    16   11   18 1   
    17   12   13 1   
    18   12   14 1   
    19   19   20 1   
    20   19   28 1   
    21   20   21 1   
    22   20   23 1   
    23   20   29 1   
    24   21   22 2   
    25   21   41 1   
    26   23   24 1   
    27   23   30 1   
    28   23   31 1   
    29   24   25 1   
    30   24   32 1   
    31   24   33 1   
    32   25   26 1   
    33   25   34 1   
    34   25   35 1   
    35   26   27 1   
    36   26   36 1   
    37   26   37 1   
    38   27   38 1   
    39   27   39 1   
    40   27   40 1   
    41   41   42 1   
    42   41   49 1   
    43   42   43 1   
    44   42   45 1   
    45   42   50 1   
    46   43   44 2   
    47   43   53 1   
    48   45   46 1   
    49   45   51 1   
    50   45   52 1   
    51   46   47 1   
    52   46   48 1   
    53   53   54 1   
    54   53   57 1   
    55   54   55 1   
    56   54   58 1   
    57   54   59 1   
    58   55   56 2   
    59   55   60 1   
    60   60   61 1   
    61   60   68 1   
    62   61   62 1   
    63   61   64 1   
    64   61   69 1   
    65   62   63 2   
    66   62   72 1   
    67   64   65 1   
    68   64   70 1   
    69   64   71 1   
    70   65   66 1   
    71   65   67 1   
    72   72   73 1   
    73   72   76 1   
    74   73   74 1   
    75   73   77 1   
    76   73   78 1   
    77   74   75 2   
    78   74   79 1   
    79   79   80 1   
    80   79   86 1   
    81   80   81 1   
    82   80   83 1   
    83   80   87 1   
    84   81   82 2   
    85   81   93 1   
    86   83   84 1   
    87   83   85 1   
    88   83   88 1   
    89   84   90 1   
    90   84   91 1   
    91   84   92 1   
    92   85   89 1   
    93   93   94 1   
    94   93  101 1   
    95   94   95 1   
    96   94   97 1   
    97   94  102 1   
    98   95   96 2   
    99   95  112 1   
   100   97   98 1   
   101   97   99 1   
   102   97  103 1   
   103   98  100 1   
   104   98  104 1   
   105   98  105 1   
   106   99  106 1   
   107   99  107 1   
   108   99  108 1   
   109  100  109 1   
   110  100  110 1   
   111  100  111 1   
   112  112  113 1   
   113  112  119 1   
   114  113  114 1   
   115  113  116 1   
   116  113  120 1   
   117  114  115 2   
   118  114  126 1   
   119  116  117 1   
   120  116  118 1   
   121  116  121 1   
   122  117  123 1   
   123  117  124 1   
   124  117  125 1   
   125  118  122 1   
   126  126  127 1   
   127  126  133 1   
   128  127  128 1   
   129  127  130 1   
   130  127  134 1   
   131  128  129 2   
   132  128  140 1   
   133  130  131 1   
   134  130  132 1   
   135  130  135 1   
   136  131  137 1   
   137  131  138 1   
   138  131  139 1   
   139  132  136 1   
   140  140  141 1   
   141  140  149 1   
   142  141  142 1   
   143  141  144 1   
   144  141  150 1   
   145  142  143 2   
   146  142  162 1   
   147  144  145 1   
   148  144  151 1   
   149  144  152 1   
   150  145  146 1   
   151  145  153 1   
   152  145  154 1   
   153  146  147 1   
   154  146  155 1   
   155  146  156 1   
   156  147  148 1   
   157  147  157 1   
   158  147  158 1   
   159  148  159 1   
   160  148  160 1   
   161  148  161 1   
   162  162  163 1   
   163  162  171 1   
   164  163  164 1   
   165  163  166 1   
   166  163  172 1   
   167  164  165 2   
   168  164  177 1   
   169  166  167 1   
   170  166  173 1   
   171  166  174 1   
   172  167  168 1   
   173  167  175 1   
   174  167  176 1   
   175  168  169 1   
   176  168  170 1   
   177  177  178 1   
   178  177  182 1   
   179  178  179 1   
   180  178  180 1   
   181  178  181 1   
   182  184  185 1   
   183  184  186 1   
   184  187  188 1   
   185  187  189 1   
@<TRIPOS>SUBSTRUCTURE
     1 MOL         1 TEMP              0 ****  ****    0 ROOT
