@<TRIPOS>MOLECULE
MOL
  189   185     1     0     0
SMALL
resp


@<TRIPOS>ATOM
      1 C1          0.7390   -2.2870    6.2500 c3        1 MOL     -0.511599
      2 C2          0.8550   -2.2730    4.7840 c         1 MOL      0.784967
      3 O1          0.4610   -1.2770    4.1910 o         1 MOL     -0.557813
      4 H1          0.2680   -1.3640    6.5860 hc        1 MOL      0.128654
      5 H2          0.1310   -3.1370    6.5580 hc        1 MOL      0.128654
      6 H3          1.7310   -2.3690    6.6920 hc        1 MOL      0.128654
      7 N1          1.5070   -3.2940    4.2610 n         1 MOL     -0.750131
      8 C3          2.1930   -3.1590    2.9520 c3        1 MOL      0.611799
      9 C4          2.1920   -4.4650    2.1520 c         1 MOL      0.295849
     10 O2          2.3210   -5.5030    2.8230 o         1 MOL     -0.576580
     11 C5          3.6290   -2.7130    3.2140 c3        1 MOL     -0.252678
     12 C6          4.4740   -2.6540    1.9130 c         1 MOL      0.588253
     13 O3          5.5530   -3.2730    1.8410 o         1 MOL     -0.599215
     14 O4          4.0830   -1.9260    0.9630 o         1 MOL     -0.599215
     15 H4          1.8290   -4.0140    4.8920 hn        1 MOL      0.341753
     16 H5          1.6500   -2.3570    2.4580 h1        1 MOL     -0.147649
     17 H6          3.9550   -3.5420    3.8430 hc        1 MOL      0.009815
     18 H7          3.5590   -1.7590    3.7390 hc        1 MOL      0.009815
     19 N2          2.2830   -4.3740    0.8630 n         1 MOL      0.048639
     20 C7          2.5920   -5.4640   -0.0450 c3        1 MOL     -0.181409
     21 C8          3.6460   -5.0680   -1.0930 c         1 MOL      0.517645
     22 O5          4.0780   -5.9090   -1.8380 o         1 MOL     -0.582850
     23 C9          1.2670   -6.0380   -0.6750 c3        1 MOL      0.115753
     24 C10         0.7110   -5.0720   -1.7620 c3        1 MOL      0.043526
     25 C11         0.2100   -6.3890    0.4170 c3        1 MOL     -0.184383
     26 C12        -0.4470   -5.6560   -2.4990 c3        1 MOL     -0.221911
     27 H8          1.9770   -3.4970    0.4620 hn        1 MOL      0.047411
     28 H9          3.0330   -6.2840    0.5310 h1        1 MOL      0.115481
     29 H10         1.5490   -6.9370   -1.2150 hc        1 MOL     -0.004711
     30 H11         1.4420   -4.7780   -2.5110 hc        1 MOL      0.048376
     31 H12         0.3960   -4.1080   -1.3450 hc        1 MOL      0.048376
     32 H13        -0.1260   -5.4870    0.9280 hc        1 MOL      0.042317
     33 H14        -0.6990   -6.8220   -0.0030 hc        1 MOL      0.042317
     34 H15         0.6530   -7.1470    1.0610 hc        1 MOL      0.042317
     35 H16        -0.4590   -5.2750   -3.5150 hc        1 MOL      0.041924
     36 H17        -0.3110   -6.7290   -2.5980 hc        1 MOL      0.041924
     37 H18        -1.4210   -5.4390   -2.0570 hc        1 MOL      0.041924
     38 N3          4.1780   -3.8180   -1.1340 n         1 MOL     -0.295935
     39 C13         5.0530   -3.4230   -2.3260 c3        1 MOL     -0.046544
     40 C14         6.2270   -2.4520   -2.0310 c         1 MOL      0.318787
     41 O6          7.0840   -2.2100   -2.8880 o         1 MOL     -0.512458
     42 C15         4.2260   -2.9520   -3.5280 c3        1 MOL     -0.130740
     43 C16         3.3990   -1.7250   -3.1280 c         1 MOL      0.731604
     44 O7          3.7100   -1.0580   -2.0790 o         1 MOL     -0.717694
     45 O8          2.3610   -1.5430   -3.8660 o         1 MOL     -0.717694
     46 H19         3.9360   -3.1600   -0.4110 hn        1 MOL      0.195490
     47 H20         5.5460   -4.3210   -2.7130 h1        1 MOL      0.120564
     48 H21         3.4840   -3.7070   -3.7590 hc        1 MOL      0.037937
     49 H22         4.8760   -2.7990   -4.3930 hc        1 MOL      0.037937
     50 N4          6.4720   -2.0580   -0.7500 n         1 MOL     -0.009592
     51 C17         7.7470   -1.4310   -0.3120 c3        1 MOL     -0.092154
     52 C18         8.0260   -0.1240   -1.0620 c         1 MOL      0.424989
     53 O9          9.1590    0.1700   -1.3200 o         1 MOL     -0.570400
     54 H23         5.7990   -2.3100   -0.0380 hn        1 MOL      0.021767
     55 H24         8.5550   -2.1370   -0.5060 h1        1 MOL      0.058249
     56 H25         7.7440   -1.2680    0.7680 h1        1 MOL      0.058249
     57 N5          6.9690    0.6020   -1.3460 n         1 MOL     -0.091190
     58 C19         7.0040    1.8940   -1.9380 c3        1 MOL     -0.062131
     59 C20         7.0230    3.0570   -0.9340 c         1 MOL      0.374382
     60 O10         7.3420    4.1880   -1.1870 o         1 MOL     -0.521975
     61 C21         5.8070    2.1540   -2.9380 c3        1 MOL     -0.273725
     62 C22         4.4020    2.0200   -2.3260 c         1 MOL      0.809746
     63 O11         4.2950    1.5450   -1.1690 o         1 MOL     -0.718792
     64 O12         3.4240    2.2310   -3.0850 o         1 MOL     -0.718792
     65 H26         6.0620    0.3220   -0.9750 hn        1 MOL      0.182918
     66 H27         7.9080    1.9050   -2.5580 h1        1 MOL      0.103005
     67 H28         5.8250    1.3970   -3.7240 hc        1 MOL      0.083087
     68 H29         5.9080    3.1460   -3.3550 hc        1 MOL      0.083087
     69 N6          6.5520    2.7870    0.2990 n         1 MOL     -0.083791
     70 C23         6.6320    3.7220    1.4810 c3        1 MOL     -0.285796
     71 C24         5.4370    4.6140    1.5690 c         1 MOL      0.578257
     72 O13         5.5050    5.6630    2.1970 o         1 MOL     -0.596023
     73 H30         6.1920    1.8700    0.4600 hn        1 MOL      0.071013
     74 H31         7.5810    4.2620    1.4350 h1        1 MOL      0.119531
     75 H32         6.5970    3.0970    2.3810 h1        1 MOL      0.119531
     76 N7          4.3010    4.2200    1.0130 n         1 MOL     -0.181917
     77 C25         2.9940    4.8600    1.2770 c3        1 MOL     -0.060713
     78 C26         1.9460    3.6820    1.2780 c         1 MOL      0.380868
     79 O14         2.0670    2.6580    0.5420 o         1 MOL     -0.503942
     80 C27         2.7550    5.9790    0.2440 c3        1 MOL      0.052738
     81 C28         2.8300    5.5840   -1.2230 c3        1 MOL     -0.200532
     82 C29         2.2370    6.6980   -2.1800 c         1 MOL      0.631734
     83 N8          2.1400    6.5230   -3.4910 n         1 MOL     -0.718880
     84 O15         1.7440    7.7760   -1.7890 o         1 MOL     -0.580317
     85 H33         4.2920    3.3840    0.4550 hn        1 MOL      0.157989
     86 H34         2.9750    5.3500    2.2560 h1        1 MOL      0.036842
     87 H35         3.4380    6.7980    0.4640 hc        1 MOL      0.026892
     88 H36         1.7960    6.4480    0.4570 hc        1 MOL      0.026892
     89 H37         2.3720    4.5960   -1.3470 hc        1 MOL      0.072706
     90 H38         3.9030    5.5720   -1.4320 hc        1 MOL      0.072706
     91 H39         2.6950    5.8060   -3.9400 hn        1 MOL      0.331184
     92 H40         1.8370    7.2950   -4.0760 hn        1 MOL      0.331184
     93 N9          0.8220    3.7890    2.0350 n         1 MOL     -0.278248
     94 C30        -0.2670    2.7400    2.2280 c3        1 MOL     -0.069992
     95 C31        -1.4210    2.9760    1.2560 c         1 MOL      0.412393
     96 O16        -2.1710    3.9390    1.4900 o         1 MOL     -0.584032
     97 C32        -0.7380    2.7340    3.6810 c3        1 MOL      0.120231
     98 C33        -1.7770    1.6720    4.0430 c3        1 MOL     -0.142132
     99 C34         0.4540    2.5550    4.6880 c3        1 MOL     -0.142132
    100 H41         0.6410    4.7040    2.4070 hn        1 MOL      0.252469
    101 H42         0.1010    1.7300    2.0290 h1        1 MOL      0.215934
    102 H43        -1.1470    3.7190    3.8890 hc        1 MOL      0.016831
    103 H44        -2.2540    1.9600    4.9810 hc        1 MOL      0.016617
    104 H45        -2.6680    1.8390    3.4410 hc        1 MOL      0.016617
    105 H46        -1.4250    0.6490    4.0450 hc        1 MOL      0.016617
    106 H47         1.3210    3.1300    4.3560 hc        1 MOL      0.016617
    107 H48         0.1880    3.0110    5.6400 hc        1 MOL      0.016617
    108 H49         0.7810    1.5190    4.6590 hc        1 MOL      0.016617
    109 N10        -1.5740    2.1620    0.2490 n         1 MOL     -0.013460
    110 C35        -2.6500    2.1560   -0.7260 c3        1 MOL     -0.120001
    111 C36        -4.0680    1.9850   -0.0400 c         1 MOL      0.486837
    112 O17        -4.2030    1.4000    1.0170 o         1 MOL     -0.423428
    113 C37        -2.3050    1.0260   -1.6530 c3        1 MOL      0.097812
    114 C38        -3.1360    0.7740   -2.9200 c         1 MOL      0.571748
    115 N11        -2.6290   -0.0660   -3.8050 n         1 MOL     -0.743005
    116 O18        -4.1280    1.3680   -3.2030 o         1 MOL     -0.573627
    117 H50        -0.8380    1.4710    0.2060 hn        1 MOL     -0.007693
    118 H51        -2.6130    3.1170   -1.2450 h1        1 MOL      0.079844
    119 H52        -2.3910    0.0680   -1.1290 hc        1 MOL      0.003823
    120 H53        -1.2700    1.1100   -1.9770 hc        1 MOL      0.003823
    121 H54        -1.7850   -0.6010   -3.6870 hn        1 MOL      0.368544
    122 H55        -3.2090   -0.1790   -4.6290 hn        1 MOL      0.368544
    123 N12        -5.1230    2.4200   -0.7720 n         1 MOL     -0.546972
    124 C39        -6.4710    1.9870   -0.4820 c3        1 MOL      0.328506
    125 C40        -6.6820    0.4860   -0.4230 c         1 MOL      0.499038
    126 O19        -7.5030   -0.0260    0.3410 o         1 MOL     -0.496307
    127 C41        -7.4240    2.6260   -1.4590 c3        1 MOL     -0.047704
    128 C42        -8.8120    2.4570   -1.1040 ca        1 MOL     -0.083746
    129 C43        -9.2890    3.2430   -0.0390 ca        1 MOL     -0.089556
    130 C44        -9.6750    1.4940   -1.6660 ca        1 MOL     -0.089556
    131 C45       -10.5020    2.9560    0.5610 ca        1 MOL     -0.332068
    132 C46       -10.9520    1.2370   -1.1130 ca        1 MOL     -0.332068
    133 C47       -11.3590    1.9280    0.0750 ca        1 MOL      0.407683
    134 O20       -12.5490    1.6510    0.6930 oh        1 MOL     -0.554537
    135 H56        -4.9440    2.8700   -1.6580 hn        1 MOL      0.278328
    136 H57        -6.8010    2.4470    0.4410 h1        1 MOL     -0.003139
    137 H58        -7.2090    2.3030   -2.4720 hc        1 MOL      0.029871
    138 H59        -7.1860    3.6930   -1.4440 hc        1 MOL      0.029871
    139 H60        -8.6290    4.0190    0.3360 ha        1 MOL      0.125897
    140 H61        -9.2980    0.8630   -2.4550 ha        1 MOL      0.125897
    141 H62       -10.8650    3.5390    1.4010 ha        1 MOL      0.159144
    142 H63       -11.5120    0.4280   -1.5680 ha        1 MOL      0.159144
    143 H64       -13.0090    1.0050    0.1590 ho        1 MOL      0.394079
    144 N13        -5.9590   -0.2850   -1.2180 n         1 MOL     -0.374959
    145 C48        -5.9610   -1.8160   -1.1730 c3        1 MOL     -0.000852
    146 C49        -5.3430   -2.4850    0.0560 c         1 MOL      0.303864
    147 O21        -5.5830   -3.6930    0.3340 o         1 MOL     -0.512060
    148 C50        -5.2580   -2.3690   -2.3880 c3        1 MOL      0.023643
    149 C51        -5.9680   -2.1620   -3.6740 c3        1 MOL     -0.113929
    150 C52        -7.1990   -2.9840   -3.8370 c         1 MOL      0.674176
    151 O22        -8.3260   -2.4900   -4.1060 o         1 MOL     -0.719495
    152 O23        -7.0830   -4.1980   -3.6180 o         1 MOL     -0.719495
    153 H65        -5.6390    0.2230   -2.0390 hn        1 MOL      0.282449
    154 H66        -6.9980   -2.1480   -1.1810 h1        1 MOL      0.137441
    155 H67        -5.2860   -3.4580   -2.3260 hc        1 MOL      0.039314
    156 H68        -4.2380   -2.0130   -2.5200 hc        1 MOL      0.039314
    157 H69        -5.3150   -2.4340   -4.5060 hc        1 MOL     -0.034488
    158 H70        -6.2040   -1.1030   -3.8200 hc        1 MOL     -0.034488
    159 N14        -4.6850   -1.6520    0.8120 n         1 MOL     -0.037289
    160 C53        -3.7700   -1.9820    1.9340 c3        1 MOL     -0.148632
    161 C54        -4.4270   -1.5300    3.2340 c         1 MOL      0.412392
    162 O24        -3.9880   -1.9040    4.3530 o         1 MOL     -0.561064
    163 C55        -2.3890   -1.2990    1.7180 c3        1 MOL     -0.041808
    164 C56        -1.4200   -2.0860    0.7210 c3        1 MOL     -0.235134
    165 C57        -0.1280   -1.3440    0.4190 c         1 MOL      0.790305
    166 O25         0.9260   -1.9380    0.2080 o         1 MOL     -0.765262
    167 O26         0.0180   -0.0950    0.3480 o         1 MOL     -0.765262
    168 H71        -4.7040   -0.7150    0.4280 hn        1 MOL     -0.062063
    169 H72        -3.5710   -3.0530    1.8550 h1        1 MOL      0.124448
    170 H73        -1.9330   -1.2230    2.7100 hc        1 MOL      0.126468
    171 H74        -2.5000   -0.3010    1.2990 hc        1 MOL      0.126468
    172 H75        -1.9350   -2.2380   -0.2210 hc        1 MOL      0.088064
    173 H76        -1.1890   -3.0410    1.1960 hc        1 MOL      0.088064
    174 N15        -5.4320   -0.6940    3.2420 n         1 MOL     -0.073576
    175 C58        -6.0970   -0.1840    4.4610 c3        1 MOL     -0.104854
    176 H77        -6.1400    0.9040    4.4230 h1        1 MOL      0.060711
    177 H78        -7.1090   -0.5850    4.5180 h1        1 MOL      0.060711
    178 H79        -5.5310   -0.4940    5.3400 h1        1 MOL      0.060711
    179 H80        -5.8140   -0.2620    2.4030 hn        1 MOL      0.119676
    180 Ca1         2.6140    0.0290   -0.0180 Ca        1 MOL      1.700206
    181 O27         2.0790    0.2990    2.5380 oh        1 MOL     -0.764107
    182 H81         2.6340    0.5150    3.2890 ho        1 MOL      0.386646
    183 H82         1.4610   -0.3480    2.8730 ho        1 MOL      0.386646
    184 O28         1.4080    1.0800   -2.1880 oh        1 MOL     -0.764107
    185 H83         0.9460    0.9190   -3.0190 ho        1 MOL      0.386646
    186 H84         2.0690    1.7320   -2.4140 ho        1 MOL      0.386646
    187 O29         5.2270    0.4970    1.7970 oh        1 MOL     -0.764107
    188 H85         4.8410    0.5750    2.6660 ho        1 MOL      0.386646
    189 H86         5.5390   -0.4100    1.7610 ho        1 MOL      0.386646
@<TRIPOS>BOND
     1    1    2 1   
     2    1    4 1   
     3    1    5 1   
     4    1    6 1   
     5    2    3 2   
     6    2    7 1   
     7    7    8 1   
     8    7   15 1   
     9    8    9 1   
    10    8   11 1   
    11    8   16 1   
    12    9   10 2   
    13    9   19 1   
    14   11   12 1   
    15   11   17 1   
    16   11   18 1   
    17   12   13 1   
    18   12   14 1   
    19   19   20 1   
    20   19   27 1   
    21   20   21 1   
    22   20   23 1   
    23   20   28 1   
    24   21   22 2   
    25   21   38 1   
    26   23   24 1   
    27   23   25 1   
    28   23   29 1   
    29   24   26 1   
    30   24   30 1   
    31   24   31 1   
    32   25   32 1   
    33   25   33 1   
    34   25   34 1   
    35   26   35 1   
    36   26   36 1   
    37   26   37 1   
    38   38   39 1   
    39   38   46 1   
    40   39   40 1   
    41   39   42 1   
    42   39   47 1   
    43   40   41 2   
    44   40   50 1   
    45   42   43 1   
    46   42   48 1   
    47   42   49 1   
    48   43   44 1   
    49   43   45 1   
    50   50   51 1   
    51   50   54 1   
    52   51   52 1   
    53   51   55 1   
    54   51   56 1   
    55   52   53 2   
    56   52   57 1   
    57   57   58 1   
    58   57   65 1   
    59   58   59 1   
    60   58   61 1   
    61   58   66 1   
    62   59   60 2   
    63   59   69 1   
    64   61   62 1   
    65   61   67 1   
    66   61   68 1   
    67   62   63 1   
    68   62   64 1   
    69   69   70 1   
    70   69   73 1   
    71   70   71 1   
    72   70   74 1   
    73   70   75 1   
    74   71   72 2   
    75   71   76 1   
    76   76   77 1   
    77   76   85 1   
    78   77   78 1   
    79   77   80 1   
    80   77   86 1   
    81   78   79 2   
    82   78   93 1   
    83   80   81 1   
    84   80   87 1   
    85   80   88 1   
    86   81   82 1   
    87   81   89 1   
    88   81   90 1   
    89   82   83 1   
    90   82   84 2   
    91   83   91 1   
    92   83   92 1   
    93   93   94 1   
    94   93  100 1   
    95   94   95 1   
    96   94   97 1   
    97   94  101 1   
    98   95   96 2   
    99   95  109 1   
   100   97   98 1   
   101   97   99 1   
   102   97  102 1   
   103   98  103 1   
   104   98  104 1   
   105   98  105 1   
   106   99  106 1   
   107   99  107 1   
   108   99  108 1   
   109  109  110 1   
   110  109  117 1   
   111  110  111 1   
   112  110  113 1   
   113  110  118 1   
   114  111  112 2   
   115  111  123 1   
   116  113  114 1   
   117  113  119 1   
   118  113  120 1   
   119  114  115 1   
   120  114  116 2   
   121  115  121 1   
   122  115  122 1   
   123  123  124 1   
   124  123  135 1   
   125  124  125 1   
   126  124  127 1   
   127  124  136 1   
   128  125  126 2   
   129  125  144 1   
   130  127  128 1   
   131  127  137 1   
   132  127  138 1   
   133  128  129 ar  
   134  128  130 ar  
   135  129  131 ar  
   136  129  139 1   
   137  130  132 ar  
   138  130  140 1   
   139  131  133 ar  
   140  131  141 1   
   141  132  133 ar  
   142  132  142 1   
   143  133  134 1   
   144  134  143 1   
   145  144  145 1   
   146  144  153 1   
   147  145  146 1   
   148  145  148 1   
   149  145  154 1   
   150  146  147 2   
   151  146  159 1   
   152  148  149 1   
   153  148  155 1   
   154  148  156 1   
   155  149  150 1   
   156  149  157 1   
   157  149  158 1   
   158  150  151 1   
   159  150  152 1   
   160  159  160 1   
   161  159  168 1   
   162  160  161 1   
   163  160  163 1   
   164  160  169 1   
   165  161  162 2   
   166  161  174 1   
   167  163  164 1   
   168  163  170 1   
   169  163  171 1   
   170  164  165 1   
   171  164  172 1   
   172  164  173 1   
   173  165  166 1   
   174  165  167 1   
   175  174  175 1   
   176  174  179 1   
   177  175  176 1   
   178  175  177 1   
   179  175  178 1   
   180  181  182 1   
   181  181  183 1   
   182  184  185 1   
   183  184  186 1   
   184  187  188 1   
   185  187  189 1   
@<TRIPOS>SUBSTRUCTURE
     1 MOL         1 TEMP              0 ****  ****    0 ROOT
