@<TRIPOS>MOLECULE
MOL
  175   173     1     0     0
SMALL
resp


@<TRIPOS>ATOM
      1 C1          0.3570    4.0680    5.5900 c3        1 MOL     -0.358285
      2 C2         -0.1590    4.0220    4.1330 c         1 MOL      0.647423
      3 O1          0.5100    4.4220    3.1560 o         1 MOL     -0.524146
      4 H1          0.9920    3.2020    5.7780 hc        1 MOL      0.087968
      5 H2          0.9340    4.9800    5.7440 hc        1 MOL      0.087968
      6 H3         -0.4900    4.0530    6.2770 hc        1 MOL      0.087968
      7 N1         -1.4110    3.5450    3.9740 n         1 MOL     -0.557318
      8 C3         -2.1280    3.4450    2.6820 c3        1 MOL      0.093075
      9 C4         -2.1550    4.6930    1.8150 c         1 MOL      0.669288
     10 O2         -2.1580    5.7950    2.3870 o         1 MOL     -0.573115
     11 C5         -3.5160    2.8990    2.9940 c3        1 MOL     -0.425833
     12 C6         -4.2480    2.5570    1.6770 c         1 MOL      0.661465
     13 O3         -5.4780    2.7370    1.6710 o         1 MOL     -0.611561
     14 O4         -3.5630    2.0860    0.7240 o         1 MOL     -0.611561
     15 H4         -1.9010    3.2890    4.8220 hn        1 MOL      0.305554
     16 H5         -1.6710    2.6240    2.1380 h1        1 MOL      0.055792
     17 H6         -4.0140    3.7550    3.4540 hc        1 MOL      0.100470
     18 H7         -3.4320    2.0760    3.7020 hc        1 MOL      0.100470
     19 N2         -2.1350    4.5460    0.4570 n         1 MOL     -0.536461
     20 C7         -2.3320    5.5920   -0.5170 c3        1 MOL      0.332546
     21 C8         -3.3180    5.1410   -1.6300 c         1 MOL      0.500556
     22 O5         -3.5260    5.9120   -2.5060 o         1 MOL     -0.562800
     23 C9         -0.9490    6.0560   -1.0440 c3        1 MOL     -0.364645
     24 H8         -2.1330    3.5970    0.1140 hn        1 MOL      0.303768
     25 H9         -2.8890    6.3830   -0.0320 h1        1 MOL     -0.022106
     26 H10        -0.6020    6.7760   -0.3070 hc        1 MOL      0.089595
     27 H11        -0.2030    5.2530   -1.0700 hc        1 MOL      0.089595
     28 H12        -1.0510    6.4840   -2.0370 hc        1 MOL      0.089595
     29 N3         -3.9310    3.9210   -1.5960 n         1 MOL     -0.289625
     30 C10        -4.7860    3.3890   -2.6640 c3        1 MOL      0.051480
     31 C11        -5.9710    2.5080   -2.2690 c         1 MOL      0.462131
     32 O6         -6.7710    2.0780   -3.1360 o         1 MOL     -0.550599
     33 C12        -3.9660    2.7580   -3.8010 c3        1 MOL     -0.071018
     34 C13        -3.0570    1.5590   -3.3210 c         1 MOL      0.604770
     35 O7         -3.3520    1.0320   -2.2090 o         1 MOL     -0.636957
     36 O8         -2.3110    1.1010   -4.2390 o         1 MOL     -0.636957
     37 H13        -3.8140    3.3140   -0.8000 hn        1 MOL      0.099824
     38 H14        -5.3260    4.2510   -3.0510 h1        1 MOL      0.044731
     39 H15        -3.4120    3.5640   -4.2780 hc        1 MOL      0.016847
     40 H16        -4.6380    2.3360   -4.5600 hc        1 MOL      0.016847
     41 N4         -6.1620    2.2540   -0.9570 n         1 MOL     -0.317133
     42 C14        -7.3740    1.4870   -0.4820 c3        1 MOL      0.053224
     43 C15        -7.4250    0.0280   -0.9300 c         1 MOL      0.447310
     44 O9         -8.4980   -0.5460   -1.1140 o         1 MOL     -0.594708
     45 H17        -5.4590    2.6510   -0.3420 hn        1 MOL      0.183708
     46 H18        -8.3660    1.9070   -0.6450 h1        1 MOL      0.042651
     47 H19        -7.2450    1.4020    0.5970 h1        1 MOL      0.042651
     48 N5         -6.2810   -0.6020   -1.2990 n         1 MOL     -0.043131
     49 C16        -6.2590   -1.8860   -1.9470 c3        1 MOL     -0.098529
     50 C17        -6.0750   -3.0710   -0.8880 c         1 MOL      0.333941
     51 O10        -5.6850   -4.1990   -1.2430 o         1 MOL     -0.452893
     52 C18        -5.1480   -1.7980   -3.0440 c3        1 MOL     -0.086296
     53 C19        -3.6760   -1.9720   -2.5600 c         1 MOL      0.539479
     54 N6         -2.6780   -1.9800   -3.4060 n         1 MOL     -0.495233
     55 O11        -3.3670   -1.9870   -1.3640 o         1 MOL     -0.645653
     56 H20        -5.5050   -0.0110   -1.5410 hn        1 MOL      0.061413
     57 H21        -7.1830   -1.9280   -2.5190 h1        1 MOL      0.125387
     58 H22        -5.2850   -0.9030   -3.6400 hc        1 MOL      0.060656
     59 H23        -5.2930   -2.6060   -3.7670 hc        1 MOL      0.060656
     60 H24        -2.8280   -2.1430   -4.3960 hn        1 MOL      0.290945
     61 H25        -1.7320   -1.9780   -3.0580 hn        1 MOL      0.290945
     62 N7         -6.3470   -2.8200    0.3910 n         1 MOL     -0.138575
     63 C20        -6.3990   -3.9090    1.4520 c3        1 MOL     -0.373445
     64 C21        -5.0780   -4.6890    1.6500 c         1 MOL      0.594682
     65 O12        -5.1670   -5.7390    2.3560 o         1 MOL     -0.558182
     66 H26        -6.6190   -1.8850    0.6370 hn        1 MOL      0.199372
     67 H27        -7.1040   -4.6580    1.1100 h1        1 MOL      0.159028
     68 H28        -6.6380   -3.4530    2.4110 h1        1 MOL      0.159028
     69 N8         -3.9190   -4.1200    1.1680 n         1 MOL     -0.350737
     70 C22        -2.5960   -4.7400    1.2350 c3        1 MOL     -0.084748
     71 C23        -1.5120   -3.6210    1.3270 c         1 MOL      0.487186
     72 O13        -1.7580   -2.5950    0.7930 o         1 MOL     -0.497796
     73 C24        -2.2380   -5.6430    0.0650 c3        1 MOL      0.520403
     74 C25        -2.9550   -6.9260    0.1100 c3        1 MOL     -0.530262
     75 O14        -2.5230   -5.2090   -1.2800 oh        1 MOL     -0.603412
     76 H29        -4.0640   -3.3400    0.5390 hn        1 MOL      0.187948
     77 H30        -2.5790   -5.3410    2.1410 h1        1 MOL      0.073567
     78 H31        -1.1610   -5.7750    0.1600 h1        1 MOL     -0.032917
     79 H32        -2.7370   -4.2770   -1.2480 ho        1 MOL      0.362840
     80 H33        -2.5040   -7.5470   -0.6610 hc        1 MOL      0.127077
     81 H34        -2.8470   -7.4090    1.0830 hc        1 MOL      0.127077
     82 H35        -4.0110   -6.8470   -0.1000 hc        1 MOL      0.127077
     83 N9         -0.3490   -3.8870    1.9180 n         1 MOL     -0.476250
     84 C26         0.7670   -2.9190    1.9270 c3        1 MOL     -0.010938
     85 C27         1.5920   -3.1830    0.6560 c         1 MOL      0.628951
     86 O15         2.0090   -4.3360    0.4400 o         1 MOL     -0.588609
     87 C28         1.5160   -3.0060    3.3270 c3        1 MOL      0.066011
     88 C29         0.6320   -2.5590    4.4660 c3        1 MOL      0.243429
     89 C30         2.7610   -2.1260    3.3010 c3        1 MOL     -0.232007
     90 C31         1.1800   -2.7250    5.8440 c3        1 MOL     -0.341881
     91 H36        -0.2700   -4.7850    2.3570 hn        1 MOL      0.275066
     92 H37         0.2800   -1.9480    1.7770 h1        1 MOL      0.079210
     93 H38         1.7460   -4.0570    3.4320 hc        1 MOL      0.010999
     94 H39        -0.2140   -3.2420    4.4480 hc        1 MOL     -0.050463
     95 H40         0.1300   -1.5960    4.3530 hc        1 MOL     -0.050463
     96 H41         2.4120   -1.1160    3.1300 hc        1 MOL      0.038844
     97 H42         3.3130   -2.2210    4.2380 hc        1 MOL      0.038844
     98 H43         3.4440   -2.3210    2.4800 hc        1 MOL      0.038844
     99 H44         1.7450   -3.6490    5.9760 hc        1 MOL      0.075008
    100 H45         1.9540   -2.0050    6.0930 hc        1 MOL      0.075008
    101 H46         0.3250   -2.6300    6.5120 hc        1 MOL      0.075008
    102 N10         1.7480   -2.0900   -0.0760 n         1 MOL     -0.246305
    103 C32         2.6960   -1.9210   -1.1260 c3        1 MOL     -0.029533
    104 C33         4.1480   -1.4750   -0.7760 c         1 MOL      0.323065
    105 O16         4.2600   -0.7150    0.2040 o         1 MOL     -0.162890
    106 C34         2.0350   -0.9550   -2.1840 c3        1 MOL     -0.146766
    107 C35         0.5680   -1.3470   -2.5890 c         1 MOL      0.617102
    108 O17        -0.4410   -0.9880   -1.8990 o         1 MOL     -0.627048
    109 O18         0.4440   -1.8590   -3.7220 o         1 MOL     -0.627048
    110 H47         1.1590   -1.3100    0.1830 hn        1 MOL      0.114089
    111 H48         2.8180   -2.9350   -1.5270 h1        1 MOL      0.048981
    112 H49         2.6370   -1.0420   -3.0960 hc        1 MOL      0.070401
    113 H50         2.1680    0.1100   -1.9830 hc        1 MOL      0.070401
    114 N11         5.1530   -1.7420   -1.5930 n         1 MOL     -0.469814
    115 C36         6.5500   -1.5260   -1.1810 c3        1 MOL      0.207561
    116 C37         6.8560   -0.0540   -0.8770 c         1 MOL      0.390372
    117 O19         7.3960    0.2850    0.1790 o         1 MOL     -0.490639
    118 C38         7.5020   -2.2320   -2.2380 c3        1 MOL     -0.439856
    119 C39         8.9670   -1.8510   -2.1500 ca        1 MOL      0.318515
    120 C40         9.8310   -2.3760   -1.1590 ca        1 MOL     -0.315311
    121 C41         9.4820   -0.8870   -2.9890 ca        1 MOL     -0.315311
    122 C42        11.1180   -1.8860   -0.9540 ca        1 MOL     -0.004339
    123 C43        10.7890   -0.4330   -2.8810 ca        1 MOL     -0.004339
    124 C44        11.6610   -0.9860   -1.9250 ca        1 MOL     -0.188348
    125 H51         4.8930   -2.0150   -2.5290 hn        1 MOL      0.321995
    126 H52         6.7770   -1.9920   -0.2170 h1        1 MOL      0.093132
    127 H53         7.1010   -2.1200   -3.2540 hc        1 MOL      0.129880
    128 H54         7.4940   -3.2560   -1.8930 hc        1 MOL      0.129880
    129 H55         9.3570   -3.0270   -0.4410 ha        1 MOL      0.148147
    130 H56         8.7970   -0.3470   -3.6200 ha        1 MOL      0.148147
    131 H57        11.7210   -2.2660   -0.1380 ha        1 MOL      0.095102
    132 H58        11.1570    0.3630   -3.5110 ha        1 MOL      0.095102
    133 H59        12.6930   -0.6760   -2.0330 ha        1 MOL      0.110096
    134 N12         6.2760    0.9360   -1.6460 n         1 MOL     -0.127264
    135 C45         6.4130    2.4060   -1.3070 c3        1 MOL     -0.044251
    136 C46         5.8690    2.7970    0.1040 c         1 MOL      0.349816
    137 O20         6.3250    3.7720    0.7420 o         1 MOL     -0.519421
    138 C47         5.5420    3.0570   -2.4130 c3        1 MOL      0.089406
    139 C48         5.4390    2.1010   -3.6600 c3        1 MOL     -0.091229
    140 C49         5.4860    0.7930   -2.8540 c3        1 MOL      0.079968
    141 H60         7.4390    2.7640   -1.4310 h1        1 MOL      0.069147
    142 H61         4.5550    3.1780   -1.9750 hc        1 MOL     -0.000109
    143 H62         5.8670    4.0720   -2.6760 hc        1 MOL     -0.000109
    144 H63         4.5410    2.2510   -4.2720 hc        1 MOL      0.041879
    145 H64         6.3780    2.2320   -4.1910 hc        1 MOL      0.041879
    146 H65         4.4980    0.4150   -2.5610 h1        1 MOL     -0.009451
    147 H66         5.9600    0.0730   -3.5080 h1        1 MOL     -0.009451
    148 N13         4.8710    2.0360    0.5950 n         1 MOL     -0.065856
    149 C50         4.1020    2.1470    1.8630 c3        1 MOL     -0.040949
    150 C51         4.6930    1.2860    3.0050 c         1 MOL      0.429085
    151 O21         4.8280    1.6580    4.1900 o         1 MOL     -0.560697
    152 C52         2.6510    1.6540    1.6100 c3        1 MOL     -0.016298
    153 C53         1.8510    2.2070    0.3660 c3        1 MOL      0.027700
    154 C54         0.4210    1.5640    0.1710 c         1 MOL      0.576296
    155 O22         0.2510    0.4760    0.7190 o         1 MOL     -0.700314
    156 O23        -0.4970    2.0510   -0.5400 o         1 MOL     -0.700314
    157 H67         4.6750    1.1570    0.1400 hn        1 MOL      0.041453
    158 H68         4.0100    3.1470    2.2810 h1        1 MOL      0.078634
    159 H69         2.0940    1.9570    2.4930 hc        1 MOL      0.006479
    160 H70         2.7300    0.5700    1.5750 hc        1 MOL      0.006479
    161 H71         2.4110    2.1050   -0.5550 hc        1 MOL      0.020421
    162 H72         1.7550    3.2810    0.5290 hc        1 MOL      0.020421
    163 N14         5.2490    0.1090    2.6460 n         1 MOL      0.018289
    164 C55         6.2520   -0.6510    3.4840 c3        1 MOL     -0.208802
    165 H73         5.7940   -0.9330    4.4320 h1        1 MOL      0.079001
    166 H74         6.5660   -1.5490    2.9520 h1        1 MOL      0.079001
    167 H75         7.1200   -0.0190    3.6750 h1        1 MOL      0.079001
    168 H76         5.2020   -0.2080    1.6890 hn        1 MOL     -0.015801
    169 Ca1        -2.0980   -0.0580   -0.1850 Ca        1 MOL      1.702503
    170 O24        -1.6070   -0.0380    2.7570 oh        1 MOL     -0.797075
    171 H77        -1.7210    0.3140    3.6330 ho        1 MOL      0.396808
    172 H78        -0.6590   -0.0570    2.6260 ho        1 MOL      0.396808
    173 O25        -4.1170   -0.8740    1.4890 oh        1 MOL     -0.797075
    174 H79        -5.0360   -0.7090    1.7000 ho        1 MOL      0.396808
    175 H80        -3.7060   -1.0660    2.3300 ho        1 MOL      0.396808
@<TRIPOS>BOND
     1    1    2 1   
     2    1    4 1   
     3    1    5 1   
     4    1    6 1   
     5    2    3 2   
     6    2    7 1   
     7    7    8 1   
     8    7   15 1   
     9    8    9 1   
    10    8   11 1   
    11    8   16 1   
    12    9   10 2   
    13    9   19 1   
    14   11   12 1   
    15   11   17 1   
    16   11   18 1   
    17   12   13 1   
    18   12   14 1   
    19   19   20 1   
    20   19   24 1   
    21   20   21 1   
    22   20   23 1   
    23   20   25 1   
    24   21   22 2   
    25   21   29 1   
    26   23   26 1   
    27   23   27 1   
    28   23   28 1   
    29   29   30 1   
    30   29   37 1   
    31   30   31 1   
    32   30   33 1   
    33   30   38 1   
    34   31   32 2   
    35   31   41 1   
    36   33   34 1   
    37   33   39 1   
    38   33   40 1   
    39   34   35 1   
    40   34   36 1   
    41   41   42 1   
    42   41   45 1   
    43   42   43 1   
    44   42   46 1   
    45   42   47 1   
    46   43   44 2   
    47   43   48 1   
    48   48   49 1   
    49   48   56 1   
    50   49   50 1   
    51   49   52 1   
    52   49   57 1   
    53   50   51 2   
    54   50   62 1   
    55   52   53 1   
    56   52   58 1   
    57   52   59 1   
    58   53   54 1   
    59   53   55 2   
    60   54   60 1   
    61   54   61 1   
    62   62   63 1   
    63   62   66 1   
    64   63   64 1   
    65   63   67 1   
    66   63   68 1   
    67   64   65 2   
    68   64   69 1   
    69   69   70 1   
    70   69   76 1   
    71   70   71 1   
    72   70   73 1   
    73   70   77 1   
    74   71   72 2   
    75   71   83 1   
    76   73   74 1   
    77   73   75 1   
    78   73   78 1   
    79   74   80 1   
    80   74   81 1   
    81   74   82 1   
    82   75   79 1   
    83   83   84 1   
    84   83   91 1   
    85   84   85 1   
    86   84   87 1   
    87   84   92 1   
    88   85   86 2   
    89   85  102 1   
    90   87   88 1   
    91   87   89 1   
    92   87   93 1   
    93   88   90 1   
    94   88   94 1   
    95   88   95 1   
    96   89   96 1   
    97   89   97 1   
    98   89   98 1   
    99   90   99 1   
   100   90  100 1   
   101   90  101 1   
   102  102  103 1   
   103  102  110 1   
   104  103  104 1   
   105  103  106 1   
   106  103  111 1   
   107  104  105 2   
   108  104  114 1   
   109  106  107 1   
   110  106  112 1   
   111  106  113 1   
   112  107  108 1   
   113  107  109 1   
   114  114  115 1   
   115  114  125 1   
   116  115  116 1   
   117  115  118 1   
   118  115  126 1   
   119  116  117 2   
   120  116  134 1   
   121  118  119 1   
   122  118  127 1   
   123  118  128 1   
   124  119  120 ar  
   125  119  121 ar  
   126  120  122 ar  
   127  120  129 1   
   128  121  123 ar  
   129  121  130 1   
   130  122  124 ar  
   131  122  131 1   
   132  123  124 ar  
   133  123  132 1   
   134  124  133 1   
   135  134  135 1   
   136  134  140 1   
   137  135  136 1   
   138  135  138 1   
   139  135  141 1   
   140  136  137 2   
   141  136  148 1   
   142  138  139 1   
   143  138  142 1   
   144  138  143 1   
   145  139  140 1   
   146  139  144 1   
   147  139  145 1   
   148  140  146 1   
   149  140  147 1   
   150  148  149 1   
   151  148  157 1   
   152  149  150 1   
   153  149  152 1   
   154  149  158 1   
   155  150  151 2   
   156  150  163 1   
   157  152  153 1   
   158  152  159 1   
   159  152  160 1   
   160  153  154 1   
   161  153  161 1   
   162  153  162 1   
   163  154  155 1   
   164  154  156 1   
   165  163  164 1   
   166  163  168 1   
   167  164  165 1   
   168  164  166 1   
   169  164  167 1   
   170  170  171 1   
   171  170  172 1   
   172  173  174 1   
   173  173  175 1   
@<TRIPOS>SUBSTRUCTURE
     1 MOL         1 TEMP              0 ****  ****    0 ROOT
