@<TRIPOS>MOLECULE
MOL
  189   185     1     0     0
SMALL
resp


@<TRIPOS>ATOM
      1 C1         -1.2690    2.4870    5.9510 c3        1 MOL     -0.415884
      2 C2         -1.1160    1.9460    4.5520 c         1 MOL      0.885922
      3 O1         -0.1050    2.0630    3.9180 o         1 MOL     -0.634256
      4 H1         -2.2870    2.3120    6.2990 hc        1 MOL      0.089549
      5 H2         -0.5670    1.9820    6.6150 hc        1 MOL      0.089549
      6 H3         -1.0640    3.5580    5.9520 hc        1 MOL      0.089549
      7 N1         -2.1690    1.3230    4.0960 n         1 MOL     -0.754972
      8 C3         -2.3930    1.3250    2.6330 c3        1 MOL      0.410603
      9 C4         -2.4420    2.8130    2.1330 c         1 MOL      0.090184
     10 O2         -3.2910    3.5330    2.6990 o         1 MOL     -0.511707
     11 C5         -3.7060    0.5500    2.3150 c3        1 MOL     -0.003027
     12 C6         -4.1180    0.6830    0.8730 c         1 MOL      0.863808
     13 O3         -3.3210    0.4670   -0.0710 o         1 MOL     -0.662263
     14 O4         -5.2810    0.9940    0.6340 o         1 MOL     -0.662263
     15 H4         -2.9000    1.2270    4.7880 hn        1 MOL      0.350876
     16 H5         -1.5230    0.8910    2.1530 h1        1 MOL      0.008096
     17 H6         -4.5860    0.9070    2.8430 hc        1 MOL     -0.045506
     18 H7         -3.6010   -0.5190    2.4770 hc        1 MOL     -0.045506
     19 N2         -1.6770    3.0590    1.0410 n         1 MOL     -0.007202
     20 C7         -1.5590    4.3980    0.3890 c3        1 MOL      0.112599
     21 C8         -1.4510    4.3570   -1.1200 c         1 MOL      0.571091
     22 O5         -0.9690    5.3280   -1.6890 o         1 MOL     -0.543016
     23 C9         -0.4230    5.1790    1.0310 c3        1 MOL     -0.301948
     24 C10        -0.5560    5.5580    2.5390 c3        1 MOL      0.265361
     25 C11         0.5470    6.4890    3.0380 c3        1 MOL     -0.065990
     26 C12         0.5530    6.6670    4.5610 c3        1 MOL      0.025959
     27 N3         -0.6670    7.3690    5.0100 n4        1 MOL     -0.545877
     28 H8         -1.2060    2.3070    0.5470 hn        1 MOL      0.102626
     29 H9         -2.5100    4.9190    0.5270 h1        1 MOL      0.050983
     30 H10        -0.3130    6.1540    0.5550 hc        1 MOL      0.060394
     31 H11         0.5200    4.6320    0.9110 hc        1 MOL      0.060394
     32 H12        -0.3780    4.6620    3.1420 hc        1 MOL     -0.044425
     33 H13        -1.5510    5.9740    2.6710 hc        1 MOL     -0.044425
     34 H14         0.3020    7.4390    2.5630 hc        1 MOL      0.040980
     35 H15         1.5350    6.1060    2.7710 hc        1 MOL      0.040980
     36 H16         1.4810    7.2180    4.7450 hx        1 MOL      0.104711
     37 H17         0.6320    5.7160    5.0900 hx        1 MOL      0.104711
     38 H18        -0.4380    8.1250    5.6410 hn        1 MOL      0.371495
     39 H19        -1.2370    7.7680    4.2740 hn        1 MOL      0.371495
     40 H20        -1.2340    6.7160    5.5360 hn        1 MOL      0.371495
     41 N4         -2.1200    3.4060   -1.7340 n         1 MOL     -0.377372
     42 C13        -2.6310    3.6960   -3.0850 c3        1 MOL     -0.131201
     43 C14        -4.0660    3.1520   -3.3470 c         1 MOL      0.520572
     44 O6         -4.5050    3.1210   -4.4930 o         1 MOL     -0.481459
     45 C15        -1.7060    3.1800   -4.1700 c3        1 MOL      0.052274
     46 C16        -1.3500    1.6840   -4.1550 c         1 MOL      0.799521
     47 O7         -0.6100    1.2830   -5.0790 o         1 MOL     -0.746171
     48 O8         -1.9060    0.8960   -3.3660 o         1 MOL     -0.746171
     49 H21        -2.4200    2.5960   -1.1970 hn        1 MOL      0.080547
     50 H22        -2.6760    4.7750   -3.1570 h1        1 MOL      0.096760
     51 H23        -0.7400    3.6960   -4.1600 hc        1 MOL     -0.027657
     52 H24        -2.1510    3.3520   -5.1500 hc        1 MOL     -0.027657
     53 N5         -4.7890    2.7830   -2.2860 n         1 MOL     -0.273374
     54 C17        -6.2090    2.4360   -2.4070 c3        1 MOL     -0.206020
     55 C18        -6.5420    0.9510   -2.7510 c         1 MOL      0.585569
     56 O9         -7.1690    0.5730   -3.7770 o         1 MOL     -0.560074
     57 H25        -4.3870    2.9250   -1.3670 hn        1 MOL      0.259777
     58 H26        -6.6770    3.0940   -3.1330 h1        1 MOL      0.097003
     59 H27        -6.6700    2.6130   -1.4320 h1        1 MOL      0.097003
     60 N6         -6.1100    0.0040   -1.8940 n         1 MOL     -0.185013
     61 C19        -6.6540   -1.4220   -2.0220 c3        1 MOL     -0.133204
     62 C20        -6.8750   -2.1810   -0.7330 c         1 MOL      0.509861
     63 O10        -7.2310   -3.3720   -0.6430 o         1 MOL     -0.529696
     64 C21        -5.6680   -2.2810   -2.9290 c3        1 MOL     -0.051839
     65 C22        -4.2780   -2.2760   -2.4800 c         1 MOL      0.749513
     66 O11        -3.3400   -2.1050   -3.2650 o         1 MOL     -0.739566
     67 O12        -3.9130   -2.4280   -1.2980 o         1 MOL     -0.739566
     68 H28        -5.5830    0.3080   -1.0900 hn        1 MOL     -0.011421
     69 H29        -7.6210   -1.4630   -2.5280 h1        1 MOL      0.122449
     70 H30        -5.6230   -1.9890   -3.9840 hc        1 MOL      0.039936
     71 H31        -5.9900   -3.3240   -2.8730 hc        1 MOL      0.039936
     72 N7         -6.6280   -1.4790    0.3870 n         1 MOL     -0.413887
     73 C23        -6.7070   -1.9730    1.8160 c3        1 MOL      0.039983
     74 C24        -5.5260   -2.8620    2.2740 c         1 MOL      0.353954
     75 O13        -5.7180   -3.5180    3.3130 o         1 MOL     -0.557588
     76 H32        -6.3490   -0.5210    0.2070 hn        1 MOL      0.277016
     77 H33        -7.6890   -2.3690    2.0990 h1        1 MOL      0.074421
     78 H34        -6.7050   -1.0910    2.4470 h1        1 MOL      0.074421
     79 N8         -4.4230   -2.9650    1.5050 n         1 MOL      0.168034
     80 C25        -3.2390   -3.8350    1.7920 c3        1 MOL     -0.242090
     81 C26        -1.9200   -3.0600    1.5380 c         1 MOL      0.499631
     82 O14        -1.8950   -2.0540    0.8850 o         1 MOL     -0.512473
     83 C27        -3.2130   -5.1280    0.9460 c3        1 MOL      0.591038
     84 C28        -4.1680   -6.1440    1.5990 c3        1 MOL     -0.330511
     85 O15        -3.5440   -4.9980   -0.3620 oh        1 MOL     -0.690869
     86 H35        -4.5130   -2.5070    0.6040 hn        1 MOL     -0.116223
     87 H36        -3.1950   -4.0080    2.8710 h1        1 MOL      0.079498
     88 H37        -2.2270   -5.5830    1.0350 h1        1 MOL     -0.076519
     89 H38        -3.6600   -4.0640   -0.5320 ho        1 MOL      0.502607
     90 H39        -3.9890   -7.1860    1.3300 hc        1 MOL      0.070706
     91 H40        -4.1110   -6.1240    2.6870 hc        1 MOL      0.070706
     92 H41        -5.1520   -5.7970    1.2860 hc        1 MOL      0.070706
     93 N9         -0.7780   -3.5390    2.1310 n         1 MOL     -0.510855
     94 C29         0.5780   -2.8960    2.1140 c3        1 MOL      0.095784
     95 C30         1.6630   -3.6120    1.3140 c         1 MOL      0.354830
     96 O16         2.1030   -4.7190    1.6700 o         1 MOL     -0.546342
     97 C31         1.0840   -2.6630    3.5560 c3        1 MOL      0.215748
     98 C32        -0.0690   -2.1930    4.4950 c3        1 MOL      0.198392
     99 C33         2.3270   -1.7560    3.6070 c3        1 MOL     -0.225630
    100 C34         0.4180   -1.7910    5.9130 c3        1 MOL     -0.283547
    101 H42        -0.7890   -4.3930    2.6660 hn        1 MOL      0.272275
    102 H43         0.4350   -1.9780    1.5350 h1        1 MOL     -0.005577
    103 H44         1.3550   -3.6620    3.8700 hc        1 MOL     -0.046599
    104 H45        -0.8190   -2.9680    4.6410 hc        1 MOL     -0.047856
    105 H46        -0.5910   -1.3730    4.0020 hc        1 MOL     -0.047856
    106 H47         2.6180   -1.8180    4.6470 hc        1 MOL      0.032060
    107 H48         3.1420   -2.1020    2.9690 hc        1 MOL      0.032060
    108 H49         1.9960   -0.7280    3.4310 hc        1 MOL      0.032060
    109 H50         0.9390   -2.6330    6.3590 hc        1 MOL      0.064413
    110 H51         0.9340   -0.8370    5.8890 hc        1 MOL      0.064413
    111 H52        -0.5000   -1.6660    6.5050 hc        1 MOL      0.064413
    112 N10         2.2780   -2.9320    0.3380 n         1 MOL      0.051454
    113 C35         3.4890   -3.3450   -0.4070 c3        1 MOL     -0.332521
    114 C36         4.7790   -2.7420    0.1330 c         1 MOL      0.530903
    115 O17         4.6990   -1.8860    0.9730 o         1 MOL     -0.335780
    116 C37         3.3780   -2.9790   -1.8860 c3        1 MOL      0.378291
    117 C38         2.2160   -3.6120   -2.6660 c3        1 MOL     -0.707742
    118 O18         3.2590   -1.5460   -1.9660 oh        1 MOL     -0.667635
    119 H53         1.9150   -2.0030    0.1570 hn        1 MOL      0.199944
    120 H54         3.4850   -4.4320   -0.3900 h1        1 MOL      0.106710
    121 H55         4.3610   -3.1750   -2.3230 h1        1 MOL      0.018221
    122 H56         2.3200   -1.3860   -2.0100 ho        1 MOL      0.435152
    123 H57         1.3100   -3.0470   -2.4770 hc        1 MOL      0.200448
    124 H58         2.5720   -3.5580   -3.7010 hc        1 MOL      0.200448
    125 H59         2.0410   -4.6500   -2.3740 hc        1 MOL      0.200448
    126 N11         5.9650   -3.0680   -0.3870 n         1 MOL     -0.439968
    127 C39         7.2130   -2.3860    0.0360 c3        1 MOL     -0.142257
    128 C40         7.2240   -0.8580   -0.0770 c         1 MOL      0.401043
    129 O19         7.5470   -0.1680    0.9130 o         1 MOL     -0.483919
    130 C41         8.4660   -2.9070   -0.7250 c3        1 MOL      0.467294
    131 C42         8.7200   -4.3860   -0.6230 c3        1 MOL     -0.266004
    132 O20         8.5460   -2.5130   -2.0720 oh        1 MOL     -0.698375
    133 H60         6.0130   -3.5970   -1.2460 hn        1 MOL      0.309220
    134 H61         7.4340   -2.6530    1.0770 h1        1 MOL      0.129513
    135 H62         9.3460   -2.4870   -0.2510 h1        1 MOL     -0.020111
    136 H63         9.4020   -2.6360   -2.4950 ho        1 MOL      0.425193
    137 H64         7.8500   -4.8580   -1.0960 hc        1 MOL      0.064267
    138 H65         9.6440   -4.6980   -1.1000 hc        1 MOL      0.064267
    139 H66         8.7540   -4.6640    0.4260 hc        1 MOL      0.064267
    140 N12         6.7990   -0.2870   -1.2000 n         1 MOL     -0.238942
    141 C43         6.6600    1.0970   -1.4440 c3        1 MOL     -0.109351
    142 C44         5.7780    1.8320   -0.4180 c         1 MOL      0.393023
    143 O21         6.0650    3.0120   -0.1490 o         1 MOL     -0.547761
    144 C45         6.0750    1.1260   -2.8950 c3        1 MOL     -0.208026
    145 C46         6.2450    2.5300   -3.5460 c3        1 MOL     -0.009019
    146 C47         5.7010    2.4680   -4.9960 c3        1 MOL     -0.011453
    147 C48         4.1330    2.5220   -4.9870 c3        1 MOL      0.103500
    148 N13         3.6990    2.4450   -6.3790 n4        1 MOL     -0.413028
    149 H67         6.5570   -0.8830   -1.9830 hn        1 MOL      0.249830
    150 H68         7.6360    1.5760   -1.3630 h1        1 MOL      0.137503
    151 H69         4.9960    1.0110   -2.8530 hc        1 MOL      0.090700
    152 H70         6.5030    0.3650   -3.5410 hc        1 MOL      0.090700
    153 H71         7.3030    2.7570   -3.6130 hc        1 MOL      0.048120
    154 H72         5.8150    3.3990   -3.0510 hc        1 MOL      0.048120
    155 H73         6.0180    1.5700   -5.5330 hc        1 MOL      0.013510
    156 H74         6.0470    3.3430   -5.5450 hc        1 MOL      0.013510
    157 H75         3.7420    3.3600   -4.4260 hx        1 MOL      0.077765
    158 H76         3.7230    1.6340   -4.4950 hx        1 MOL      0.077765
    159 H77         3.8790    1.5300   -6.7610 hn        1 MOL      0.339996
    160 H78         2.7030    2.6300   -6.4040 hn        1 MOL      0.339996
    161 H79         4.1160    3.1740   -6.9420 hn        1 MOL      0.339996
    162 N14         4.9210    1.1480    0.2490 n         1 MOL     -0.006149
    163 C49         3.9650    1.5630    1.2740 c3        1 MOL     -0.218194
    164 C50         4.4550    1.4740    2.7430 c         1 MOL      0.480609
    165 O22         4.0820    2.2890    3.5600 o         1 MOL     -0.530071
    166 C51         2.6070    0.8850    1.1280 c3        1 MOL      0.206726
    167 C52         1.9770    1.1630   -0.2080 c3        1 MOL     -0.263716
    168 C53         0.6880    0.3560   -0.4530 c         1 MOL      0.602093
    169 O23         0.7650   -0.8630   -0.6730 o         1 MOL     -0.643616
    170 O24        -0.4270    0.9170   -0.3850 o         1 MOL     -0.643616
    171 H80         4.8640    0.1850   -0.0480 hn        1 MOL      0.172912
    172 H81         3.7990    2.6400    1.2020 h1        1 MOL      0.120598
    173 H82         1.9300    1.1880    1.9190 hc        1 MOL      0.034540
    174 H83         2.6970   -0.2080    1.1400 hc        1 MOL      0.034540
    175 H84         2.7070    0.9610   -0.9890 hc        1 MOL      0.036009
    176 H85         1.6960    2.2140   -0.3130 hc        1 MOL      0.036009
    177 N15         5.4540    0.6340    3.0230 n         1 MOL     -0.192946
    178 C54         5.8260    0.0820    4.3110 c3        1 MOL     -0.250688
    179 H86         5.0830    0.3680    5.0570 h1        1 MOL      0.104123
    180 H87         5.8710   -1.0040    4.2430 h1        1 MOL      0.104123
    181 H88         6.8020    0.4690    4.6050 h1        1 MOL      0.104123
    182 H89         5.7750    0.0760    2.2390 hn        1 MOL      0.153718
    183 Ca1        -1.7580   -0.9280   -1.4370 Ca        1 MOL      1.771791
    184 O25        -0.1080   -1.2490   -3.7380 oh        1 MOL     -0.920307
    185 H90        -0.7000   -0.6180   -4.1580 ho        1 MOL      0.418831
    186 H91         0.1340   -1.8490   -4.4400 ho        1 MOL      0.418831
    187 O26        -1.0310   -3.5650   -1.5570 oh        1 MOL     -0.920307
    188 H92        -1.7600   -4.0690   -1.9240 ho        1 MOL      0.418831
    189 H93        -0.2740   -4.1330   -1.6540 ho        1 MOL      0.418831
@<TRIPOS>BOND
     1    1    2 1   
     2    1    4 1   
     3    1    5 1   
     4    1    6 1   
     5    2    3 2   
     6    2    7 1   
     7    7    8 1   
     8    7   15 1   
     9    8    9 1   
    10    8   11 1   
    11    8   16 1   
    12    9   10 2   
    13    9   19 1   
    14   11   12 1   
    15   11   17 1   
    16   11   18 1   
    17   12   13 1   
    18   12   14 1   
    19   19   20 1   
    20   19   28 1   
    21   20   21 1   
    22   20   23 1   
    23   20   29 1   
    24   21   22 2   
    25   21   41 1   
    26   23   24 1   
    27   23   30 1   
    28   23   31 1   
    29   24   25 1   
    30   24   32 1   
    31   24   33 1   
    32   25   26 1   
    33   25   34 1   
    34   25   35 1   
    35   26   27 1   
    36   26   36 1   
    37   26   37 1   
    38   27   38 1   
    39   27   39 1   
    40   27   40 1   
    41   41   42 1   
    42   41   49 1   
    43   42   43 1   
    44   42   45 1   
    45   42   50 1   
    46   43   44 2   
    47   43   53 1   
    48   45   46 1   
    49   45   51 1   
    50   45   52 1   
    51   46   47 1   
    52   46   48 1   
    53   53   54 1   
    54   53   57 1   
    55   54   55 1   
    56   54   58 1   
    57   54   59 1   
    58   55   56 2   
    59   55   60 1   
    60   60   61 1   
    61   60   68 1   
    62   61   62 1   
    63   61   64 1   
    64   61   69 1   
    65   62   63 2   
    66   62   72 1   
    67   64   65 1   
    68   64   70 1   
    69   64   71 1   
    70   65   66 1   
    71   65   67 1   
    72   72   73 1   
    73   72   76 1   
    74   73   74 1   
    75   73   77 1   
    76   73   78 1   
    77   74   75 2   
    78   74   79 1   
    79   79   80 1   
    80   79   86 1   
    81   80   81 1   
    82   80   83 1   
    83   80   87 1   
    84   81   82 2   
    85   81   93 1   
    86   83   84 1   
    87   83   85 1   
    88   83   88 1   
    89   84   90 1   
    90   84   91 1   
    91   84   92 1   
    92   85   89 1   
    93   93   94 1   
    94   93  101 1   
    95   94   95 1   
    96   94   97 1   
    97   94  102 1   
    98   95   96 2   
    99   95  112 1   
   100   97   98 1   
   101   97   99 1   
   102   97  103 1   
   103   98  100 1   
   104   98  104 1   
   105   98  105 1   
   106   99  106 1   
   107   99  107 1   
   108   99  108 1   
   109  100  109 1   
   110  100  110 1   
   111  100  111 1   
   112  112  113 1   
   113  112  119 1   
   114  113  114 1   
   115  113  116 1   
   116  113  120 1   
   117  114  115 2   
   118  114  126 1   
   119  116  117 1   
   120  116  118 1   
   121  116  121 1   
   122  117  123 1   
   123  117  124 1   
   124  117  125 1   
   125  118  122 1   
   126  126  127 1   
   127  126  133 1   
   128  127  128 1   
   129  127  130 1   
   130  127  134 1   
   131  128  129 2   
   132  128  140 1   
   133  130  131 1   
   134  130  132 1   
   135  130  135 1   
   136  131  137 1   
   137  131  138 1   
   138  131  139 1   
   139  132  136 1   
   140  140  141 1   
   141  140  149 1   
   142  141  142 1   
   143  141  144 1   
   144  141  150 1   
   145  142  143 2   
   146  142  162 1   
   147  144  145 1   
   148  144  151 1   
   149  144  152 1   
   150  145  146 1   
   151  145  153 1   
   152  145  154 1   
   153  146  147 1   
   154  146  155 1   
   155  146  156 1   
   156  147  148 1   
   157  147  157 1   
   158  147  158 1   
   159  148  159 1   
   160  148  160 1   
   161  148  161 1   
   162  162  163 1   
   163  162  171 1   
   164  163  164 1   
   165  163  166 1   
   166  163  172 1   
   167  164  165 2   
   168  164  177 1   
   169  166  167 1   
   170  166  173 1   
   171  166  174 1   
   172  167  168 1   
   173  167  175 1   
   174  167  176 1   
   175  168  169 1   
   176  168  170 1   
   177  177  178 1   
   178  177  182 1   
   179  178  179 1   
   180  178  180 1   
   181  178  181 1   
   182  184  185 1   
   183  184  186 1   
   184  187  188 1   
   185  187  189 1   
@<TRIPOS>SUBSTRUCTURE
     1 MOL         1 TEMP              0 ****  ****    0 ROOT
