@<TRIPOS>MOLECULE
MOL
  182   178     1     0     0
SMALL
resp


@<TRIPOS>ATOM
      1 C1          2.7280    1.3840    5.3640 c3        1 MOL     -0.307541
      2 C2          1.9320    1.5050    4.0730 c         1 MOL      0.727855
      3 O1          2.4660    1.9270    3.0960 o         1 MOL     -0.621041
      4 H1          2.5460    2.2610    5.9850 hc        1 MOL      0.081929
      5 H2          2.4160    0.4880    5.9010 hc        1 MOL      0.081929
      6 H3          3.7910    1.3180    5.1310 hc        1 MOL      0.081929
      7 N1          0.6100    1.4840    4.0900 n         1 MOL     -0.401689
      8 C3         -0.2160    1.9180    2.9550 c3        1 MOL      0.046651
      9 C4         -0.2820    3.4400    2.7000 c         1 MOL      0.331858
     10 O2         -1.0700    4.1900    3.3670 o         1 MOL     -0.487139
     11 C5         -1.5930    1.3050    3.1710 c3        1 MOL      0.036693
     12 C6         -2.6140    1.4420    2.0230 c         1 MOL      0.563984
     13 O3         -2.2460    1.9340    0.9190 o         1 MOL     -0.662781
     14 O4         -3.8010    1.0980    2.2670 o         1 MOL     -0.662781
     15 H4          0.1330    1.2430    4.9410 hn        1 MOL      0.245048
     16 H5          0.2260    1.4950    2.0530 h1        1 MOL     -0.025516
     17 H6         -2.0710    1.7530    4.0340 hc        1 MOL      0.031258
     18 H7         -1.4100    0.2630    3.4190 hc        1 MOL      0.031258
     19 N2          0.5420    3.8580    1.6790 n         1 MOL     -0.158098
     20 C7          0.7670    5.3020    1.4240 c3        1 MOL      0.075840
     21 C8         -0.2170    5.9140    0.4730 c         1 MOL      0.414216
     22 O5         -0.5970    7.0470    0.6650 o         1 MOL     -0.516916
     23 C9          2.1980    5.4820    1.1980 c3        1 MOL     -0.213941
     24 C10         2.5780    5.1220   -0.2250 c3        1 MOL      0.318692
     25 C11         4.0510    5.4300   -0.5180 c3        1 MOL     -0.048131
     26 C12         4.3680    4.6760   -1.7370 c3        1 MOL      0.169096
     27 N3          5.7480    4.8320   -2.3020 n4        1 MOL     -0.348880
     28 H8          1.1800    3.1810    1.2970 hn        1 MOL      0.283237
     29 H9          0.6020    5.8260    2.3650 h1        1 MOL      0.076834
     30 H10         2.8720    4.9480    1.8710 hc        1 MOL      0.056720
     31 H11         2.3930    6.5460    1.2410 hc        1 MOL      0.056720
     32 H12         2.0030    5.6280   -1.0020 hc        1 MOL     -0.092736
     33 H13         2.4470    4.0400   -0.3380 hc        1 MOL     -0.092736
     34 H14         4.6110    4.8860    0.2430 hc        1 MOL      0.015512
     35 H15         4.3350    6.4810   -0.5020 hc        1 MOL      0.015512
     36 H16         3.7540    5.0260   -2.5730 hx        1 MOL      0.024690
     37 H17         4.2770    3.6250   -1.4920 hx        1 MOL      0.024690
     38 H18         5.8860    4.2780   -3.1290 hn        1 MOL      0.310394
     39 H19         5.8560    5.7870   -2.6300 hn        1 MOL      0.310394
     40 H20         6.4940    4.6330   -1.6390 hn        1 MOL      0.310394
     41 N4         -0.6200    5.1910   -0.5780 n         1 MOL     -0.303434
     42 C13        -1.7070    5.6960   -1.4420 c3        1 MOL      0.041940
     43 C14        -3.1070    5.4110   -0.8050 c         1 MOL      0.426688
     44 O6         -4.0600    6.1570   -1.1210 o         1 MOL     -0.563517
     45 C15        -1.4590    5.0740   -2.7850 c3        1 MOL     -0.228512
     46 C16        -1.3340    3.5910   -2.8260 c         1 MOL      0.854973
     47 O7         -1.8110    2.8870   -2.0060 o         1 MOL     -0.777831
     48 O8         -0.6840    3.0940   -3.7600 o         1 MOL     -0.777831
     49 H21        -0.2750    4.2640   -0.7800 hn        1 MOL      0.264536
     50 H22        -1.7240    6.7790   -1.4810 h1        1 MOL      0.095621
     51 H23        -0.5100    5.4430   -3.1770 hc        1 MOL      0.057943
     52 H24        -2.1730    5.4750   -3.5100 hc        1 MOL      0.057943
     53 N5         -3.0950    4.5380    0.1990 n         1 MOL      0.235321
     54 C17        -4.2700    4.2700    0.9850 c3        1 MOL     -0.682267
     55 C18        -5.2780    3.3750    0.3160 c         1 MOL      0.773979
     56 O9         -6.2980    3.1900    0.9330 o         1 MOL     -0.587940
     57 H25        -2.2580    3.9740    0.3040 hn        1 MOL     -0.155442
     58 H26        -4.8610    5.1780    1.1280 h1        1 MOL      0.249590
     59 H27        -3.9200    3.8390    1.9240 h1        1 MOL      0.249590
     60 N6         -4.9490    2.5980   -0.7440 n         1 MOL     -0.617568
     61 C19        -5.8710    1.6930   -1.4100 c3        1 MOL      0.217153
     62 C20        -6.4580    0.5370   -0.6080 c         1 MOL      0.206106
     63 O10        -7.3910   -0.1010   -1.0460 o         1 MOL     -0.485490
     64 C21        -5.2810    1.3260   -2.7740 c3        1 MOL     -0.358689
     65 C22        -4.5910   -0.0580   -2.7080 c         1 MOL      0.708447
     66 N7         -4.9230   -0.9120   -3.6960 n         1 MOL     -0.764433
     67 O11        -3.6600   -0.3220   -1.8970 o         1 MOL     -0.630451
     68 H28        -4.0600    2.8010   -1.1770 hn        1 MOL      0.292993
     69 H29        -6.6950    2.3830   -1.5560 h1        1 MOL      0.098739
     70 H30        -4.5310    2.0050   -3.1860 hc        1 MOL      0.114029
     71 H31        -6.1120    1.1490   -3.4550 hc        1 MOL      0.114029
     72 H32        -5.7130   -0.7060   -4.2950 hn        1 MOL      0.375629
     73 H33        -4.3590   -1.7470   -3.7120 hn        1 MOL      0.375629
     74 N8         -5.9870    0.2730    0.6660 n         1 MOL      0.065357
     75 C23        -6.5710   -0.7170    1.5630 c3        1 MOL     -0.366349
     76 C24        -5.6250   -1.9580    1.6470 c         1 MOL      0.542014
     77 O12        -5.9350   -2.8810    2.4650 o         1 MOL     -0.548779
     78 H34        -5.2310    0.8330    1.0240 hn        1 MOL      0.245386
     79 H35        -7.5440   -0.9930    1.1680 h1        1 MOL      0.161674
     80 H36        -6.6380   -0.2700    2.5600 h1        1 MOL      0.161674
     81 N9         -4.5150   -2.0390    0.8630 n         1 MOL     -0.153227
     82 C25        -3.5590   -3.0990    0.8860 c3        1 MOL      0.099849
     83 C26        -2.1730   -2.5260    0.9650 c         1 MOL      0.599210
     84 O13        -1.8720   -1.3840    0.4650 o         1 MOL     -0.707642
     85 C27        -3.6670   -3.9830   -0.3750 c3        1 MOL      0.113603
     86 C28        -4.9510   -4.8880   -0.4530 ca        1 MOL     -0.036401
     87 C29        -6.2430   -4.3970   -0.5430 ca        1 MOL     -0.165793
     88 C30        -4.8530   -6.3300   -0.5460 ca        1 MOL     -0.165793
     89 C31        -7.3750   -5.2070   -0.5980 ca        1 MOL     -0.172733
     90 C32        -5.9670   -7.1490   -0.7000 ca        1 MOL     -0.172733
     91 C33        -7.2430   -6.6350   -0.7090 ca        1 MOL      0.239682
     92 O14        -8.3270   -7.4550   -0.8480 oh        1 MOL     -0.418548
     93 H37        -4.3420   -1.2360    0.2630 hn        1 MOL      0.113914
     94 H38        -3.7850   -3.7710    1.7120 h1        1 MOL      0.022456
     95 H39        -2.7670   -4.5740   -0.5230 hc        1 MOL     -0.010514
     96 H40        -3.6070   -3.3220   -1.2400 hc        1 MOL     -0.010514
     97 H41        -6.3200   -3.3320   -0.7090 ha        1 MOL      0.094495
     98 H42        -3.9000   -6.8350   -0.5900 ha        1 MOL      0.094495
     99 H43        -8.3430   -4.7350   -0.7140 ha        1 MOL      0.133915
    100 H44        -5.8570   -8.2290   -0.7210 ha        1 MOL      0.133915
    101 H45        -7.9500   -8.3270   -1.0250 ho        1 MOL      0.312279
    102 N10        -1.2470   -3.2790    1.6050 n         1 MOL     -0.580247
    103 C34         0.1600   -2.9190    1.5810 c3        1 MOL      0.113229
    104 C35         1.0200   -3.6330    0.5480 c         1 MOL      0.485718
    105 O15         0.9620   -4.8700    0.3790 o         1 MOL     -0.592358
    106 C36         0.7080   -3.2010    3.0320 c3        1 MOL      0.132549
    107 C37         0.0300   -2.4530    4.1840 c3        1 MOL      0.283296
    108 C38         2.1930   -2.7130    3.1990 c3        1 MOL     -0.390505
    109 C39         0.1080   -3.1800    5.5810 c3        1 MOL     -0.182504
    110 H46        -1.4890   -4.2280    1.8840 hn        1 MOL      0.311393
    111 H47         0.3630   -1.8520    1.4810 h1        1 MOL      0.175097
    112 H48         0.6760   -4.2790    3.2070 hc        1 MOL      0.000522
    113 H49        -1.0310   -2.3010    4.0000 hc        1 MOL     -0.113930
    114 H50         0.4620   -1.4560    4.1780 hc        1 MOL     -0.113930
    115 H51         2.2820   -1.6280    3.1430 hc        1 MOL      0.070501
    116 H52         2.5830   -3.0490    4.1590 hc        1 MOL      0.070501
    117 H53         2.7430   -3.1380    2.3630 hc        1 MOL      0.070501
    118 H54        -0.2670   -4.2010    5.5280 hc        1 MOL      0.040093
    119 H55         1.1460   -3.3070    5.8810 hc        1 MOL      0.040093
    120 H56        -0.3300   -2.5780    6.3910 hc        1 MOL      0.040093
    121 N11         1.8690   -2.8990   -0.1460 n         1 MOL     -0.063906
    122 C40         2.7340   -3.5220   -1.1530 c3        1 MOL      0.103749
    123 C41         4.1390   -3.7020   -0.6840 c         1 MOL      0.421443
    124 O16         4.5290   -3.2340    0.4400 o         1 MOL     -0.368983
    125 C42         2.5480   -2.5850   -2.3650 c3        1 MOL     -0.236287
    126 O17         3.5000   -1.5260   -2.3970 oh        1 MOL     -0.259989
    127 H57         1.9350   -1.9000    0.0350 hn        1 MOL      0.035046
    128 H58         2.3500   -4.5020   -1.3890 h1        1 MOL      0.058796
    129 H59         1.5290   -2.2090   -2.4610 h1        1 MOL      0.104448
    130 H60         2.7870   -3.2370   -3.2030 h1        1 MOL      0.104448
    131 H61         3.2610   -0.9960   -3.1560 ho        1 MOL      0.315683
    132 N12         5.0240   -4.3580   -1.4880 n         1 MOL     -0.423547
    133 C43         6.3870   -4.6690   -1.0630 c3        1 MOL      0.022868
    134 C44         7.2430   -3.3660   -1.2630 c         1 MOL      0.496863
    135 O18         8.1910   -3.0110   -0.5690 o         1 MOL     -0.519285
    136 C45         6.9880   -5.8740   -1.8180 c3        1 MOL     -0.214931
    137 H62         4.8340   -4.4850   -2.4730 hn        1 MOL      0.299668
    138 H63         6.3200   -4.9570   -0.0180 h1        1 MOL      0.137864
    139 H64         7.2560   -5.6050   -2.8440 hc        1 MOL      0.078335
    140 H65         7.8780   -6.2410   -1.3110 hc        1 MOL      0.078335
    141 H66         6.2400   -6.6630   -1.8780 hc        1 MOL      0.078335
    142 N13         6.8070   -2.5570   -2.2190 n         1 MOL     -0.309322
    143 C46         7.3730   -1.2660   -2.5160 c3        1 MOL      0.018636
    144 C47         7.0890   -0.3410   -1.3330 c         1 MOL      0.391921
    145 O19         7.8580    0.5480   -0.9910 o         1 MOL     -0.526479
    146 C48         6.7630   -0.9020   -3.9170 c3        1 MOL     -0.255926
    147 H67         5.8810   -2.7830   -2.5650 hn        1 MOL      0.204882
    148 H68         8.4640   -1.2950   -2.6150 h1        1 MOL      0.121123
    149 H69         5.7020   -0.6830   -3.7960 hc        1 MOL      0.074495
    150 H70         7.2100   -0.0460   -4.4190 hc        1 MOL      0.074495
    151 H71         6.7690   -1.7540   -4.5860 hc        1 MOL      0.074495
    152 N14         5.9260   -0.5740   -0.6850 n         1 MOL      0.235609
    153 C49         5.4670    0.1600    0.5190 c3        1 MOL     -0.263881
    154 C50         6.2510   -0.3070    1.7770 c         1 MOL      0.435088
    155 O20         6.6040    0.5550    2.6330 o         1 MOL     -0.543030
    156 C51         3.9760    0.1310    0.6180 c3        1 MOL      0.149735
    157 C52         3.2350    1.0460   -0.3660 c3        1 MOL     -0.198962
    158 C53         1.7110    1.0750   -0.3010 c         1 MOL      0.769125
    159 O21         1.1530    0.0100    0.0390 o         1 MOL     -0.742401
    160 O22         1.0360    2.0910   -0.6800 o         1 MOL     -0.742401
    161 H72         5.2740   -1.2920   -0.9810 hn        1 MOL     -0.347203
    162 H73         5.7640    1.1930    0.3250 h1        1 MOL      0.113413
    163 H74         3.6250    0.4060    1.6090 hc        1 MOL      0.048959
    164 H75         3.5980   -0.8560    0.3430 hc        1 MOL      0.048959
    165 H76         3.5510    0.8090   -1.3780 hc        1 MOL      0.013917
    166 H77         3.4820    2.0590   -0.0510 hc        1 MOL      0.013917
    167 N15         6.6600   -1.5350    1.8710 n         1 MOL     -0.018964
    168 C54         7.7450   -1.8390    2.8220 c3        1 MOL     -0.340112
    169 H78         7.7330   -1.1100    3.6320 h1        1 MOL      0.129541
    170 H79         7.6020   -2.8390    3.2320 h1        1 MOL      0.129541
    171 H80         8.7050   -1.7910    2.3060 h1        1 MOL      0.129541
    172 H81         6.1490   -2.2260    1.3430 hn        1 MOL      0.106872
    173 Ca1        -1.1320    0.6230   -1.1010 Ca        1 MOL      1.807883
    174 O23        -1.0990   -1.8320   -2.4160 oh        1 MOL     -0.810631
    175 H82        -0.8930   -2.7570   -2.3300 ho        1 MOL      0.392265
    176 H83        -1.4540   -1.7400   -3.2970 ho        1 MOL      0.392265
    177 O24         0.9100    0.4980   -3.4460 oh        1 MOL     -0.810631
    178 H84         1.7610    0.6920   -3.8300 ho        1 MOL      0.392265
    179 H85         0.2720    0.8140   -4.0850 ho        1 MOL      0.392265
    180 O25        -1.8340    0.6420   -3.9080 oh        1 MOL     -0.810631
    181 H86        -1.5530    1.5560   -3.9190 ho        1 MOL      0.392265
    182 H87        -2.4240    0.5620   -4.6560 ho        1 MOL      0.392265
@<TRIPOS>BOND
     1    1    2 1   
     2    1    4 1   
     3    1    5 1   
     4    1    6 1   
     5    2    3 2   
     6    2    7 1   
     7    7    8 1   
     8    7   15 1   
     9    8    9 1   
    10    8   11 1   
    11    8   16 1   
    12    9   10 2   
    13    9   19 1   
    14   11   12 1   
    15   11   17 1   
    16   11   18 1   
    17   12   13 1   
    18   12   14 1   
    19   19   20 1   
    20   19   28 1   
    21   20   21 1   
    22   20   23 1   
    23   20   29 1   
    24   21   22 2   
    25   21   41 1   
    26   23   24 1   
    27   23   30 1   
    28   23   31 1   
    29   24   25 1   
    30   24   32 1   
    31   24   33 1   
    32   25   26 1   
    33   25   34 1   
    34   25   35 1   
    35   26   27 1   
    36   26   36 1   
    37   26   37 1   
    38   27   38 1   
    39   27   39 1   
    40   27   40 1   
    41   41   42 1   
    42   41   49 1   
    43   42   43 1   
    44   42   45 1   
    45   42   50 1   
    46   43   44 2   
    47   43   53 1   
    48   45   46 1   
    49   45   51 1   
    50   45   52 1   
    51   46   47 1   
    52   46   48 1   
    53   53   54 1   
    54   53   57 1   
    55   54   55 1   
    56   54   58 1   
    57   54   59 1   
    58   55   56 2   
    59   55   60 1   
    60   60   61 1   
    61   60   68 1   
    62   61   62 1   
    63   61   64 1   
    64   61   69 1   
    65   62   63 2   
    66   62   74 1   
    67   64   65 1   
    68   64   70 1   
    69   64   71 1   
    70   65   66 1   
    71   65   67 2   
    72   66   72 1   
    73   66   73 1   
    74   74   75 1   
    75   74   78 1   
    76   75   76 1   
    77   75   79 1   
    78   75   80 1   
    79   76   77 2   
    80   76   81 1   
    81   81   82 1   
    82   81   93 1   
    83   82   83 1   
    84   82   85 1   
    85   82   94 1   
    86   83   84 2   
    87   83  102 1   
    88   85   86 1   
    89   85   95 1   
    90   85   96 1   
    91   86   87 ar  
    92   86   88 ar  
    93   87   89 ar  
    94   87   97 1   
    95   88   90 ar  
    96   88   98 1   
    97   89   91 ar  
    98   89   99 1   
    99   90   91 ar  
   100   90  100 1   
   101   91   92 1   
   102   92  101 1   
   103  102  103 1   
   104  102  110 1   
   105  103  104 1   
   106  103  106 1   
   107  103  111 1   
   108  104  105 2   
   109  104  121 1   
   110  106  107 1   
   111  106  108 1   
   112  106  112 1   
   113  107  109 1   
   114  107  113 1   
   115  107  114 1   
   116  108  115 1   
   117  108  116 1   
   118  108  117 1   
   119  109  118 1   
   120  109  119 1   
   121  109  120 1   
   122  121  122 1   
   123  121  127 1   
   124  122  123 1   
   125  122  125 1   
   126  122  128 1   
   127  123  124 2   
   128  123  132 1   
   129  125  126 1   
   130  125  129 1   
   131  125  130 1   
   132  126  131 1   
   133  132  133 1   
   134  132  137 1   
   135  133  134 1   
   136  133  136 1   
   137  133  138 1   
   138  134  135 2   
   139  134  142 1   
   140  136  139 1   
   141  136  140 1   
   142  136  141 1   
   143  142  143 1   
   144  142  147 1   
   145  143  144 1   
   146  143  146 1   
   147  143  148 1   
   148  144  145 2   
   149  144  152 1   
   150  146  149 1   
   151  146  150 1   
   152  146  151 1   
   153  152  153 1   
   154  152  161 1   
   155  153  154 1   
   156  153  156 1   
   157  153  162 1   
   158  154  155 2   
   159  154  167 1   
   160  156  157 1   
   161  156  163 1   
   162  156  164 1   
   163  157  158 1   
   164  157  165 1   
   165  157  166 1   
   166  158  159 1   
   167  158  160 1   
   168  167  168 1   
   169  167  172 1   
   170  168  169 1   
   171  168  170 1   
   172  168  171 1   
   173  174  175 1   
   174  174  176 1   
   175  177  178 1   
   176  177  179 1   
   177  180  181 1   
   178  180  182 1   
@<TRIPOS>SUBSTRUCTURE
     1 MOL         1 TEMP              0 ****  ****    0 ROOT
