@<TRIPOS>MOLECULE
MOL
  179   176     1     0     0
SMALL
resp


@<TRIPOS>ATOM
      1 C1          1.3630    3.4280    5.2460 c3        1 MOL     -0.284289
      2 C2          0.9000    3.1710    3.8480 c         1 MOL      0.612313
      3 O1          1.7010    3.2400    2.8720 o         1 MOL     -0.586230
      4 H1          0.8150    2.7830    5.9340 hc        1 MOL      0.079275
      5 H2          2.4300    3.2160    5.3220 hc        1 MOL      0.079275
      6 H3          1.1810    4.4710    5.5040 hc        1 MOL      0.079275
      7 N1         -0.4130    2.9970    3.7000 n         1 MOL     -0.560394
      8 C3         -1.0390    2.7500    2.3740 c3        1 MOL      0.218696
      9 C4         -1.5110    4.0960    1.7260 c         1 MOL      0.428861
     10 O2         -2.7070    4.5250    1.8900 o         1 MOL     -0.470294
     11 C5         -2.1750    1.7590    2.6790 c3        1 MOL     -0.161943
     12 C6         -2.8360    1.2860    1.4000 c         1 MOL      0.771343
     13 O3         -2.2830    1.5190    0.2630 o         1 MOL     -0.741290
     14 O4         -3.9970    0.8850    1.4360 o         1 MOL     -0.741290
     15 H4         -1.0390    3.0800    4.4890 hn        1 MOL      0.329145
     16 H5         -0.4110    2.2090    1.6500 h1        1 MOL     -0.016976
     17 H6         -2.9080    2.2380    3.3160 hc        1 MOL      0.036501
     18 H7         -1.6720    0.9240    3.1580 hc        1 MOL      0.036501
     19 N2         -0.5300    4.8400    1.1620 n         1 MOL     -0.365983
     20 C7         -0.6410    6.1360    0.5570 c3        1 MOL     -0.077596
     21 C8         -1.6330    6.2000   -0.6140 c         1 MOL      0.474423
     22 O5         -2.3350    7.1960   -0.8180 o         1 MOL     -0.534144
     23 C9          0.7990    6.6080    0.1550 c3        1 MOL     -0.028684
     24 C10         1.8170    6.8000    1.2760 c3        1 MOL      0.004911
     25 C11         2.9110    7.8150    1.0310 c3        1 MOL      0.088514
     26 C12         3.6560    7.4760   -0.1900 c3        1 MOL      0.163230
     27 N3          4.8710    8.3680   -0.3950 n4        1 MOL     -0.521950
     28 H8          0.3450    4.3250    1.1010 hn        1 MOL      0.322326
     29 H9         -1.0030    6.8170    1.3250 h1        1 MOL      0.114335
     30 H10         0.6020    7.5260   -0.4010 hc        1 MOL      0.018178
     31 H11         1.1410    5.7920   -0.4790 hc        1 MOL      0.018178
     32 H12         2.2470    5.8500    1.5890 hc        1 MOL      0.027458
     33 H13         1.2230    7.1700    2.1140 hc        1 MOL      0.027458
     34 H14         3.5170    7.8830    1.9380 hc        1 MOL     -0.005160
     35 H15         2.4520    8.8050    0.9230 hc        1 MOL     -0.005160
     36 H16         2.9950    7.4640   -1.0530 hx        1 MOL      0.058063
     37 H17         4.0800    6.4780   -0.1030 hx        1 MOL      0.058063
     38 H18         4.7080    9.3540   -0.5250 hn        1 MOL      0.358938
     39 H19         5.5620    8.1250    0.3080 hn        1 MOL      0.358938
     40 H20         5.3210    8.1510   -1.2710 hn        1 MOL      0.358938
     41 N4         -1.6180    5.1680   -1.4380 n         1 MOL     -0.459528
     42 C13        -2.6690    4.9290   -2.5020 c3        1 MOL      0.227259
     43 C14        -4.0160    4.4070   -1.8950 c         1 MOL      0.279641
     44 O6         -5.0840    4.4880   -2.5450 o         1 MOL     -0.535524
     45 C15        -1.9910    3.9850   -3.5160 c3        1 MOL     -0.380600
     46 C16        -1.5200    2.6770   -2.8430 c         1 MOL      0.877014
     47 O7         -2.0840    1.5640   -3.0410 o         1 MOL     -0.803344
     48 O8         -0.5880    2.6500   -2.0430 o         1 MOL     -0.803344
     49 H21        -1.0570    4.3610   -1.2320 hn        1 MOL      0.312204
     50 H22        -2.8870    5.8880   -2.9740 h1        1 MOL      0.080789
     51 H23        -1.0890    4.4680   -3.8890 hc        1 MOL      0.091338
     52 H24        -2.6930    3.8470   -4.3350 hc        1 MOL      0.091338
     53 N5         -4.0820    3.9080   -0.6480 n         1 MOL      0.225677
     54 C17        -5.3010    3.6920    0.0390 c3        1 MOL     -0.193398
     55 C18        -6.1200    2.4820   -0.5360 c         1 MOL      0.526297
     56 O9         -7.3050    2.4650   -0.4260 o         1 MOL     -0.576427
     57 H25        -3.2610    4.0520   -0.0730 hn        1 MOL     -0.032477
     58 H26        -5.9520    4.5550   -0.0380 h1        1 MOL      0.088969
     59 H27        -5.1100    3.5460    1.1090 h1        1 MOL      0.088969
     60 N6         -5.4370    1.5510   -1.1810 n         1 MOL     -0.106637
     61 C19        -6.0610    0.3930   -1.8390 c3        1 MOL     -0.181552
     62 C20        -6.4130   -0.7590   -0.8290 c         1 MOL      0.325508
     63 O10        -6.9270   -1.8220   -1.3260 o         1 MOL     -0.502568
     64 C21        -5.2390   -0.0350   -3.0620 c3        1 MOL     -0.067584
     65 C22        -4.0550   -0.9860   -2.8430 c         1 MOL      0.521919
     66 N7         -3.6760   -1.7990   -3.8000 n         1 MOL     -0.699259
     67 O11        -3.2850   -0.8700   -1.8990 o         1 MOL     -0.439737
     68 H28        -4.4300    1.6380   -1.2080 hn        1 MOL      0.074282
     69 H29        -7.0290    0.6250   -2.2820 h1        1 MOL      0.154969
     70 H30        -4.9080    0.8310   -3.6340 hc        1 MOL      0.068332
     71 H31        -5.8990   -0.4810   -3.8120 hc        1 MOL      0.068332
     72 H32        -4.2430   -1.8840   -4.6310 hn        1 MOL      0.327495
     73 H33        -2.7650   -2.2330   -3.8560 hn        1 MOL      0.327495
     74 N8         -6.1550   -0.6320    0.4330 n         1 MOL     -0.108044
     75 C23        -6.5240   -1.5800    1.5130 c3        1 MOL     -0.295887
     76 C24        -5.3610   -2.5270    1.9840 c         1 MOL      0.611292
     77 O12        -5.4560   -3.3900    2.8550 o         1 MOL     -0.570724
     78 H34        -5.6680    0.1970    0.7530 hn        1 MOL      0.280702
     79 H35        -7.4090   -2.1590    1.2560 h1        1 MOL      0.138445
     80 H36        -6.7990   -0.9120    2.3280 h1        1 MOL      0.138445
     81 N9         -4.1800   -2.3500    1.3860 n         1 MOL     -0.315298
     82 C25        -2.9930   -3.1950    1.4580 c3        1 MOL     -0.027220
     83 C26        -1.6750   -2.4380    1.4100 c         1 MOL      0.715617
     84 O13        -1.6260   -1.3320    0.9160 o         1 MOL     -0.612080
     85 C27        -3.0740   -4.2530    0.2830 c3        1 MOL     -0.008273
     86 C28        -4.3430   -5.1100    0.2330 ca        1 MOL     -0.077623
     87 C29        -5.2600   -4.9260   -0.8160 ca        1 MOL      0.011879
     88 C30        -4.4290   -6.2510    1.0680 ca        1 MOL      0.011879
     89 C31        -6.2050   -6.0460   -1.1070 ca        1 MOL     -0.396575
     90 C32        -5.3870   -7.2060    0.8340 ca        1 MOL     -0.396575
     91 C33        -6.3660   -7.1430   -0.2160 ca        1 MOL      0.449274
     92 O14        -7.2660   -8.1390   -0.4340 oh        1 MOL     -0.487806
     93 H37        -4.0950   -1.5080    0.8260 hn        1 MOL      0.207600
     94 H38        -3.1610   -3.8470    2.3140 h1        1 MOL      0.068466
     95 H39        -2.3040   -4.9910    0.5290 hc        1 MOL     -0.004553
     96 H40        -2.8540   -3.8590   -0.7090 hc        1 MOL     -0.004553
     97 H41        -5.3250   -4.0590   -1.4540 ha        1 MOL      0.103395
     98 H42        -3.5720   -6.5390    1.6500 ha        1 MOL      0.103395
     99 H43        -6.8570   -6.0880   -1.9680 ha        1 MOL      0.156820
    100 H44        -5.3230   -8.1420    1.3610 ha        1 MOL      0.156820
    101 H45        -7.0790   -8.8870    0.1340 ho        1 MOL      0.352362
    102 N10        -0.6610   -3.0150    2.0800 n         1 MOL     -0.658191
    103 C34         0.7440   -2.6770    2.1120 c3        1 MOL      0.114329
    104 C35         1.5830   -3.7740    1.4430 c         1 MOL      0.466693
    105 O15         1.5320   -4.9740    1.8680 o         1 MOL     -0.560989
    106 C36         1.2540   -2.3930    3.5510 c3        1 MOL      0.006921
    107 C37         0.5320   -1.1280    4.1650 c3        1 MOL      0.079850
    108 C38         2.7890   -2.2060    3.5010 c3        1 MOL     -0.125828
    109 C39         0.5100   -1.0510    5.6920 c3        1 MOL     -0.259188
    110 H46        -0.9430   -3.9440    2.3860 hn        1 MOL      0.336440
    111 H47         0.8750   -1.7810    1.5150 h1        1 MOL      0.003766
    112 H48         1.0630   -3.2280    4.2250 hc        1 MOL      0.050723
    113 H49        -0.4940   -1.1670    3.8100 hc        1 MOL      0.046746
    114 H50         1.0030   -0.1950    3.8470 hc        1 MOL      0.046746
    115 H51         3.2440   -2.1600    4.4950 hc        1 MOL      0.029633
    116 H52         3.2050   -3.1370    3.1220 hc        1 MOL      0.029633
    117 H53         3.1200   -1.3400    2.9290 hc        1 MOL      0.029633
    118 H54         0.0090   -0.1720    6.0760 hc        1 MOL      0.055453
    119 H55        -0.1680   -1.8460    6.0050 hc        1 MOL      0.055453
    120 H56         1.5260   -1.0990    6.1010 hc        1 MOL      0.055453
    121 N11         2.4240   -3.3940    0.4770 n         1 MOL     -0.085557
    122 C40         3.4420   -4.2980   -0.2800 c3        1 MOL     -0.245820
    123 C41         4.8700   -3.9360    0.0080 c         1 MOL      0.660743
    124 O16         5.1520   -2.9840    0.6750 o         1 MOL     -0.516396
    125 C42         3.0870   -4.0970   -1.8220 c3        1 MOL     -0.096582
    126 O17         3.3910   -2.7740   -2.2450 oh        1 MOL     -0.546781
    127 H57         2.4990   -2.4770    0.0690 hn        1 MOL      0.109883
    128 H58         3.2570   -5.3140    0.0930 h1        1 MOL      0.116123
    129 H59         2.0260   -4.1470   -2.0710 h1        1 MOL      0.111774
    130 H60         3.5450   -4.8170   -2.4970 h1        1 MOL      0.111774
    131 H61         2.7060   -2.2070   -1.8810 ho        1 MOL      0.378928
    132 N12         5.8570   -4.6650   -0.4040 n         1 MOL     -0.443103
    133 C43         7.2950   -4.3180   -0.1580 c3        1 MOL      0.080768
    134 C44         7.8260   -3.1420   -0.8860 c         1 MOL      0.450166
    135 O18         8.7270   -2.4590   -0.4600 o         1 MOL     -0.510304
    136 C45         8.1530   -5.4830   -0.5510 c3        1 MOL     -0.316844
    137 H62         5.6410   -5.5110   -0.9100 hn        1 MOL      0.260661
    138 H63         7.3080   -4.1140    0.9110 h1        1 MOL      0.107047
    139 H64         7.9600   -5.8150   -1.5710 hc        1 MOL      0.103245
    140 H65         9.2100   -5.2070   -0.5530 hc        1 MOL      0.103245
    141 H66         8.1230   -6.2640    0.2060 hc        1 MOL      0.103245
    142 N13         7.2050   -2.7940   -2.0300 n         1 MOL     -0.261573
    143 C46         7.6590   -1.6770   -2.8740 c3        1 MOL     -0.038201
    144 C47         7.4180   -0.3090   -2.2170 c         1 MOL      0.456169
    145 O19         8.2460    0.6200   -2.2500 o         1 MOL     -0.514310
    146 C48         6.8700   -1.7970   -4.1830 c3        1 MOL     -0.114471
    147 H67         6.5320   -3.4140   -2.4510 hn        1 MOL      0.232523
    148 H68         8.7140   -1.9180   -3.0370 h1        1 MOL      0.103609
    149 H69         7.3830   -1.2860   -4.9930 hc        1 MOL      0.037970
    150 H70         6.7170   -2.8220   -4.5040 hc        1 MOL      0.037970
    151 H71         5.8680   -1.3920   -4.0430 hc        1 MOL      0.037970
    152 N14         6.2620   -0.2050   -1.5180 n         1 MOL     -0.301185
    153 C49         5.7240    0.9440   -0.7260 c3        1 MOL      0.009965
    154 C50         6.2320    1.0600    0.6830 c         1 MOL      0.504648
    155 O20         6.4590    2.2010    1.0660 o         1 MOL     -0.554531
    156 C51         4.1900    1.0150   -0.9320 c3        1 MOL     -0.127782
    157 C52         3.4650    0.1290    0.0750 c3        1 MOL     -0.026491
    158 C53         2.0280   -0.0150   -0.2850 c         1 MOL      0.691974
    159 O21         1.6800   -1.0640   -0.7940 o         1 MOL     -0.675995
    160 O22         1.2340    0.9020   -0.1130 o         1 MOL     -0.675995
    161 H72         5.5900   -0.9320   -1.6750 hn        1 MOL      0.251355
    162 H73         6.0230    1.8980   -1.1680 h1        1 MOL      0.072535
    163 H74         3.9440    0.6280   -1.9190 hc        1 MOL      0.039598
    164 H75         3.9150    2.0610   -0.7850 hc        1 MOL      0.039598
    165 H76         3.4550    0.5800    1.0790 hc        1 MOL      0.023335
    166 H77         3.9330   -0.8590    0.1650 hc        1 MOL      0.023335
    167 N15         6.6730   -0.0690    1.2790 n         1 MOL     -0.215629
    168 C54         7.1430   -0.1640    2.6780 c3        1 MOL     -0.208027
    169 H78         6.4370   -0.7580    3.2590 h1        1 MOL      0.098795
    170 H79         8.1230   -0.6400    2.7000 h1        1 MOL      0.098795
    171 H80         7.2150    0.8360    3.1060 h1        1 MOL      0.098795
    172 H81         6.5020   -0.9230    0.7510 hn        1 MOL      0.208476
    173 Ca1        -0.9040    0.1360   -1.2870 Ca        1 MOL      1.733676
    174 O23        -0.6040   -2.3940   -2.2670 oh        1 MOL     -0.836736
    175 H82        -0.1960   -2.4120   -3.1330 ho        1 MOL      0.412075
    176 H83        -0.6210   -3.3070   -1.9870 ho        1 MOL      0.412075
    177 O24         0.8440    0.0910   -3.2930 oh        1 MOL     -0.836736
    178 H84         1.5840   -0.4190   -3.6090 ho        1 MOL      0.412075
    179 H85         0.7410    0.7980   -3.9350 ho        1 MOL      0.412075
@<TRIPOS>BOND
     1    1    2 1   
     2    1    4 1   
     3    1    5 1   
     4    1    6 1   
     5    2    3 2   
     6    2    7 1   
     7    7    8 1   
     8    7   15 1   
     9    8    9 1   
    10    8   11 1   
    11    8   16 1   
    12    9   10 2   
    13    9   19 1   
    14   11   12 1   
    15   11   17 1   
    16   11   18 1   
    17   12   13 1   
    18   12   14 1   
    19   19   20 1   
    20   19   28 1   
    21   20   21 1   
    22   20   23 1   
    23   20   29 1   
    24   21   22 2   
    25   21   41 1   
    26   23   24 1   
    27   23   30 1   
    28   23   31 1   
    29   24   25 1   
    30   24   32 1   
    31   24   33 1   
    32   25   26 1   
    33   25   34 1   
    34   25   35 1   
    35   26   27 1   
    36   26   36 1   
    37   26   37 1   
    38   27   38 1   
    39   27   39 1   
    40   27   40 1   
    41   41   42 1   
    42   41   49 1   
    43   42   43 1   
    44   42   45 1   
    45   42   50 1   
    46   43   44 2   
    47   43   53 1   
    48   45   46 1   
    49   45   51 1   
    50   45   52 1   
    51   46   47 1   
    52   46   48 1   
    53   53   54 1   
    54   53   57 1   
    55   54   55 1   
    56   54   58 1   
    57   54   59 1   
    58   55   56 2   
    59   55   60 1   
    60   60   61 1   
    61   60   68 1   
    62   61   62 1   
    63   61   64 1   
    64   61   69 1   
    65   62   63 2   
    66   62   74 1   
    67   64   65 1   
    68   64   70 1   
    69   64   71 1   
    70   65   66 1   
    71   65   67 2   
    72   66   72 1   
    73   66   73 1   
    74   74   75 1   
    75   74   78 1   
    76   75   76 1   
    77   75   79 1   
    78   75   80 1   
    79   76   77 2   
    80   76   81 1   
    81   81   82 1   
    82   81   93 1   
    83   82   83 1   
    84   82   85 1   
    85   82   94 1   
    86   83   84 2   
    87   83  102 1   
    88   85   86 1   
    89   85   95 1   
    90   85   96 1   
    91   86   87 ar  
    92   86   88 ar  
    93   87   89 ar  
    94   87   97 1   
    95   88   90 ar  
    96   88   98 1   
    97   89   91 ar  
    98   89   99 1   
    99   90   91 ar  
   100   90  100 1   
   101   91   92 1   
   102   92  101 1   
   103  102  103 1   
   104  102  110 1   
   105  103  104 1   
   106  103  106 1   
   107  103  111 1   
   108  104  105 2   
   109  104  121 1   
   110  106  107 1   
   111  106  108 1   
   112  106  112 1   
   113  107  109 1   
   114  107  113 1   
   115  107  114 1   
   116  108  115 1   
   117  108  116 1   
   118  108  117 1   
   119  109  118 1   
   120  109  119 1   
   121  109  120 1   
   122  121  122 1   
   123  121  127 1   
   124  122  123 1   
   125  122  125 1   
   126  122  128 1   
   127  123  124 2   
   128  123  132 1   
   129  125  126 1   
   130  125  129 1   
   131  125  130 1   
   132  126  131 1   
   133  132  133 1   
   134  132  137 1   
   135  133  134 1   
   136  133  136 1   
   137  133  138 1   
   138  134  135 2   
   139  134  142 1   
   140  136  139 1   
   141  136  140 1   
   142  136  141 1   
   143  142  143 1   
   144  142  147 1   
   145  143  144 1   
   146  143  146 1   
   147  143  148 1   
   148  144  145 2   
   149  144  152 1   
   150  146  149 1   
   151  146  150 1   
   152  146  151 1   
   153  152  153 1   
   154  152  161 1   
   155  153  154 1   
   156  153  156 1   
   157  153  162 1   
   158  154  155 2   
   159  154  167 1   
   160  156  157 1   
   161  156  163 1   
   162  156  164 1   
   163  157  158 1   
   164  157  165 1   
   165  157  166 1   
   166  158  159 1   
   167  158  160 1   
   168  167  168 1   
   169  167  172 1   
   170  168  169 1   
   171  168  170 1   
   172  168  171 1   
   173  174  175 1   
   174  174  176 1   
   175  177  178 1   
   176  177  179 1   
@<TRIPOS>SUBSTRUCTURE
     1 MOL         1 TEMP              0 ****  ****    0 ROOT
