@<TRIPOS>MOLECULE
MOL
  189   185     1     0     0
SMALL
resp


@<TRIPOS>ATOM
      1 C1          0.6960   -3.9850    5.7980 c3        1 MOL     -0.374042
      2 C2          1.3020   -3.3480    4.5390 c         1 MOL      0.726647
      3 O1          1.1160   -2.1440    4.3170 o         1 MOL     -0.609642
      4 H1          1.3290   -4.8070    6.1300 hc        1 MOL      0.096399
      5 H2          0.6280   -3.2360    6.5880 hc        1 MOL      0.096399
      6 H3         -0.3010   -4.3640    5.5700 hc        1 MOL      0.096399
      7 N1          2.1250   -4.0750    3.7740 n         1 MOL     -0.654744
      8 C3          2.8040   -3.5780    2.5580 c3        1 MOL      0.522174
      9 C4          3.0590   -4.7130    1.5610 c         1 MOL      0.381070
     10 O2          3.2510   -5.8570    1.9590 o         1 MOL     -0.565988
     11 C5          4.0130   -2.7900    2.9930 c3        1 MOL     -0.370078
     12 C6          4.8120   -2.1890    1.9060 c         1 MOL      0.765168
     13 O3          5.9770   -2.6330    1.7660 o         1 MOL     -0.672877
     14 O4          4.2420   -1.5120    1.0380 o         1 MOL     -0.672877
     15 H4          2.2460   -5.0540    3.9840 hn        1 MOL      0.298299
     16 H5          2.0240   -2.9680    2.0900 h1        1 MOL     -0.016017
     17 H6          4.6960   -3.5050    3.4480 hc        1 MOL      0.050841
     18 H7          3.7250   -2.0420    3.7270 hc        1 MOL      0.050841
     19 N2          3.0710   -4.3460    0.2640 n         1 MOL     -0.017828
     20 C7          3.5530   -5.2700   -0.8370 c3        1 MOL     -0.249505
     21 C8          4.5080   -4.6710   -1.8620 c         1 MOL      0.457256
     22 O5          5.0480   -5.4090   -2.6740 o         1 MOL     -0.571773
     23 C9          2.4000   -5.9450   -1.6050 c3        1 MOL      0.308219
     24 C10         1.5790   -4.8880   -2.3720 c3        1 MOL      0.133019
     25 C11         1.6440   -6.9400   -0.7250 c3        1 MOL     -0.218127
     26 C12         0.6650   -5.4790   -3.4010 c3        1 MOL     -0.284761
     27 H8          2.6290   -3.4650    0.0690 hn        1 MOL     -0.041880
     28 H9          4.1560   -6.0410   -0.3460 h1        1 MOL      0.123818
     29 H10         2.8400   -6.5620   -2.3850 hc        1 MOL     -0.056588
     30 H11         2.2720   -4.3000   -2.9760 hc        1 MOL      0.051247
     31 H12         0.8830   -4.3210   -1.7600 hc        1 MOL      0.051247
     32 H13         2.3610   -7.3840   -0.0360 hc        1 MOL      0.031500
     33 H14         0.8920   -6.3670   -0.1790 hc        1 MOL      0.031500
     34 H15         1.2060   -7.7820   -1.2660 hc        1 MOL      0.031500
     35 H16         0.1830   -6.3290   -2.9240 hc        1 MOL      0.040141
     36 H17        -0.1330   -4.7690   -3.6330 hc        1 MOL      0.040141
     37 H18         1.1950   -5.7560   -4.3170 hc        1 MOL      0.040141
     38 N3          4.6420   -3.3390   -1.8200 n         1 MOL     -0.190178
     39 C13         5.3340   -2.6050   -2.8700 c3        1 MOL     -0.088704
     40 C14         6.4020   -1.5550   -2.3230 c         1 MOL      0.420660
     41 O6          7.2350   -1.1680   -3.0450 o         1 MOL     -0.557283
     42 C15         4.3570   -1.9810   -3.8600 c3        1 MOL     -0.024783
     43 C16         3.2800   -1.0820   -3.3250 c         1 MOL      0.656932
     44 O7          3.2160   -0.8830   -2.0930 o         1 MOL     -0.706509
     45 O8          2.4160   -0.7090   -4.1350 o         1 MOL     -0.706509
     46 H19         4.2070   -2.8100   -1.0860 hn        1 MOL      0.242409
     47 H20         5.9040   -3.2700   -3.5310 h1        1 MOL      0.084839
     48 H21         3.9370   -2.7690   -4.4920 hc        1 MOL      0.014280
     49 H22         4.8860   -1.3740   -4.5970 hc        1 MOL      0.014280
     50 N4          6.3860   -1.1860   -1.0690 n         1 MOL      0.049964
     51 C17         7.6020   -0.5780   -0.4500 c3        1 MOL     -0.039701
     52 C18         7.7720    0.8940   -0.8150 c         1 MOL      0.348862
     53 O9          8.9020    1.4120   -0.6970 o         1 MOL     -0.571830
     54 H23         5.7860   -1.6860   -0.4390 hn        1 MOL     -0.078651
     55 H24         8.4740   -1.1590   -0.7580 h1        1 MOL      0.066652
     56 H25         7.5280   -0.6720    0.6340 h1        1 MOL      0.066652
     57 N5          6.6170    1.5420   -1.1060 n         1 MOL     -0.054689
     58 C19         6.5310    2.8370   -1.7000 c3        1 MOL     -0.045250
     59 C20         6.2160    3.9960   -0.7150 c         1 MOL      0.428361
     60 O10         6.0410    5.1210   -1.1710 o         1 MOL     -0.498565
     61 C21         5.5410    2.9340   -2.8080 c3        1 MOL     -0.214741
     62 C22         4.0940    2.4730   -2.4490 c         1 MOL      0.771805
     63 O11         3.8860    2.0130   -1.3010 o         1 MOL     -0.672149
     64 O12         3.1600    2.6780   -3.2470 o         1 MOL     -0.672149
     65 H26         5.7080    1.1140   -1.0560 hn        1 MOL      0.027834
     66 H27         7.5200    3.1210   -2.0660 h1        1 MOL      0.109356
     67 H28         5.8470    2.1710   -3.5260 hc        1 MOL      0.062169
     68 H29         5.5930    3.9210   -3.2770 hc        1 MOL      0.062169
     69 N6          6.2430    3.7630    0.5960 n         1 MOL     -0.345265
     70 C23         6.2500    4.8330    1.6080 c3        1 MOL     -0.131484
     71 C24         4.8440    5.2670    2.1360 c         1 MOL      0.641558
     72 O13         4.8080    6.3080    2.7860 o         1 MOL     -0.581250
     73 H30         6.0800    2.7980    0.8660 hn        1 MOL      0.291296
     74 H31         6.6760    5.7380    1.1770 h1        1 MOL      0.083589
     75 H32         6.6800    4.4280    2.5240 h1        1 MOL      0.083589
     76 N7          3.7310    4.5060    1.8620 n         1 MOL     -0.509847
     77 C25         2.2800    4.9350    1.9430 c3        1 MOL      0.156098
     78 C26         1.4670    3.6380    2.0020 c         1 MOL      0.219652
     79 O14         1.9790    2.6120    1.5330 o         1 MOL     -0.384839
     80 C27         2.0310    5.7750    0.6860 c3        1 MOL     -0.369882
     81 C28         2.0720    5.0840   -0.6820 c3        1 MOL      0.140130
     82 C29         1.9660    5.9330   -1.9400 c         1 MOL      0.603720
     83 N8          2.3510    5.3360   -3.0280 n         1 MOL     -0.744973
     84 O15         1.5750    7.0660   -1.9590 o         1 MOL     -0.619872
     85 H33         3.8610    3.5140    1.7170 hn        1 MOL      0.277768
     86 H34         2.3030    5.5540    2.8350 h1        1 MOL      0.043846
     87 H35         2.8450    6.4850    0.5490 hc        1 MOL      0.120034
     88 H36         1.0930    6.3110    0.8090 hc        1 MOL      0.120034
     89 H37         1.2620    4.3540   -0.6990 hc        1 MOL      0.004819
     90 H38         3.0410    4.5780   -0.7530 hc        1 MOL      0.004819
     91 H39         2.7420    4.4060   -3.0950 hn        1 MOL      0.333086
     92 H40         2.1470    5.8240   -3.8970 hn        1 MOL      0.333086
     93 N9          0.1780    3.7370    2.3330 n         1 MOL     -0.287651
     94 C30        -0.7390    2.6050    2.3320 c3        1 MOL     -0.008582
     95 C31        -1.8100    2.7570    1.2140 c         1 MOL      0.892058
     96 O16        -2.3150    3.8310    1.1310 o         1 MOL     -0.630861
     97 C32        -1.3390    2.2780    3.7560 c3        1 MOL      0.110417
     98 C33        -2.4240    3.3170    4.2060 c3        1 MOL     -0.134436
     99 C34        -1.8210    0.8380    3.9280 c3        1 MOL     -0.134436
    100 H41        -0.1400    4.6210    2.6910 hn        1 MOL      0.263704
    101 H42        -0.1800    1.7400    1.9880 h1        1 MOL      0.006148
    102 H43        -0.5810    2.4530    4.5180 hc        1 MOL     -0.001984
    103 H44        -2.6630    3.1830    5.2610 hc        1 MOL      0.020582
    104 H45        -1.9880    4.3190    4.2190 hc        1 MOL      0.020582
    105 H46        -3.2910    3.2650    3.5440 hc        1 MOL      0.020582
    106 H47        -2.1160    0.6510    4.9590 hc        1 MOL      0.020582
    107 H48        -2.5720    0.6940    3.1610 hc        1 MOL      0.020582
    108 H49        -0.9990    0.1560    3.7030 hc        1 MOL      0.020582
    109 N10        -2.0050    1.7070    0.4530 n         1 MOL     -0.670692
    110 C35        -3.0790    1.6530   -0.4940 c3        1 MOL      0.138095
    111 C36        -4.4350    1.1540    0.1430 c         1 MOL      0.332767
    112 O17        -4.4270    0.5880    1.2230 o         1 MOL     -0.323342
    113 C37        -2.6300    0.8200   -1.7570 c3        1 MOL     -0.169946
    114 C38        -3.6740    0.5570   -2.7970 c         1 MOL      0.489966
    115 N11        -4.0810    1.5620   -3.5080 n         1 MOL     -0.655814
    116 O18        -4.4130   -0.4350   -2.8520 o         1 MOL     -0.454998
    117 H50        -1.5510    0.8180    0.5570 hn        1 MOL      0.391352
    118 H51        -3.2340    2.6780   -0.8430 h1        1 MOL      0.034708
    119 H52        -2.1360   -0.1270   -1.5190 hc        1 MOL      0.103994
    120 H53        -1.8970    1.3870   -2.3380 hc        1 MOL      0.103994
    121 H54        -3.6250    2.4600   -3.4630 hn        1 MOL      0.330735
    122 H55        -4.8470    1.3600   -4.1300 hn        1 MOL      0.330735
    123 N12        -5.5470    1.3140   -0.5660 n         1 MOL     -0.333166
    124 C39        -6.8260    0.6990   -0.1940 c3        1 MOL      0.078621
    125 C40        -6.7280   -0.7820    0.0360 c         1 MOL      0.518538
    126 O19        -7.2430   -1.2390    1.0910 o         1 MOL     -0.561995
    127 C41        -7.9270    0.8910   -1.2820 c3        1 MOL     -0.374507
    128 C42        -8.7310    2.1720   -1.1330 ca        1 MOL      0.310310
    129 C43        -9.8440    2.2370   -0.2770 ca        1 MOL     -0.268258
    130 C44        -8.5100    3.2600   -1.9910 ca        1 MOL     -0.268258
    131 C45       -10.6660    3.3960   -0.1430 ca        1 MOL     -0.197962
    132 C46        -9.2080    4.4950   -1.7790 ca        1 MOL     -0.197962
    133 C47       -10.3090    4.5360   -0.9320 ca        1 MOL      0.238946
    134 O20       -11.0400    5.6540   -0.8090 oh        1 MOL     -0.460009
    135 H56        -5.5240    1.8540   -1.4150 hn        1 MOL      0.176548
    136 H57        -7.0780    1.1260    0.7750 h1        1 MOL      0.080609
    137 H58        -8.6360    0.0780   -1.1540 hc        1 MOL      0.132164
    138 H59        -7.3120    0.7840   -2.1770 hc        1 MOL      0.132164
    139 H60       -10.0340    1.4170    0.3980 ha        1 MOL      0.165292
    140 H61        -7.7290    3.1810   -2.7380 ha        1 MOL      0.165292
    141 H62       -11.5440    3.4490    0.4800 ha        1 MOL      0.130122
    142 H63        -8.9920    5.3560   -2.3970 ha        1 MOL      0.130122
    143 H64       -10.8190    6.3790   -1.3960 ho        1 MOL      0.342169
    144 N13        -5.9920   -1.5510   -0.8040 n         1 MOL     -0.399539
    145 C48        -5.8580   -3.0340   -0.6500 c3        1 MOL     -0.179050
    146 C49        -4.7600   -3.4340    0.3220 c         1 MOL      0.411611
    147 O21        -4.6020   -4.6360    0.5870 o         1 MOL     -0.547762
    148 C50        -5.5340   -3.6660   -2.0490 c3        1 MOL     -0.005641
    149 C51        -6.5040   -3.3420   -3.2100 c3        1 MOL     -0.017404
    150 C52        -7.9850   -3.4540   -2.7510 c         1 MOL      0.748858
    151 O22        -8.7530   -2.5060   -3.0950 o         1 MOL     -0.752734
    152 O23        -8.4290   -4.4620   -2.1510 o         1 MOL     -0.752734
    153 H65        -5.5250   -1.1330   -1.5930 hn        1 MOL      0.356967
    154 H66        -6.8060   -3.3460   -0.2210 h1        1 MOL      0.206802
    155 H67        -5.5030   -4.7550   -1.9950 hc        1 MOL      0.028429
    156 H68        -4.5480   -3.3120   -2.3630 hc        1 MOL      0.028429
    157 H69        -6.4760   -4.0590   -4.0250 hc        1 MOL     -0.060330
    158 H70        -6.2750   -2.3210   -3.5130 hc        1 MOL     -0.060330
    159 N14        -4.0700   -2.4820    0.8950 n         1 MOL     -0.034471
    160 C53        -3.1340   -2.7530    2.0290 c3        1 MOL     -0.060673
    161 C54        -3.7260   -2.2880    3.3880 c         1 MOL      0.460321
    162 O24        -3.4860   -2.8930    4.4040 o         1 MOL     -0.540273
    163 C55        -1.7990   -2.0820    1.7170 c3        1 MOL     -0.005588
    164 C56        -1.1580   -2.4720    0.3830 c3        1 MOL     -0.046912
    165 C57         0.1290   -1.6830    0.1170 c         1 MOL      0.868769
    166 O25         1.2520   -2.2290   -0.1620 o         1 MOL     -0.851764
    167 O26         0.1000   -0.4960    0.2880 o         1 MOL     -0.851764
    168 H71        -4.3690   -1.5440    0.6580 hn        1 MOL     -0.035779
    169 H72        -2.9310   -3.8080    2.2190 h1        1 MOL      0.081518
    170 H73        -1.0210   -2.1690    2.4830 hc        1 MOL      0.058719
    171 H74        -2.1320   -1.0390    1.7030 hc        1 MOL      0.058719
    172 H75        -1.8710   -2.3010   -0.4250 hc        1 MOL     -0.003424
    173 H76        -1.0170   -3.5560    0.3750 hc        1 MOL     -0.003424
    174 N15        -4.6340   -1.2980    3.3470 n         1 MOL     -0.145345
    175 C58        -5.1840   -0.7210    4.5900 c3        1 MOL     -0.181438
    176 H77        -5.7330    0.1910    4.3560 h1        1 MOL      0.076161
    177 H78        -5.8580   -1.4400    5.0570 h1        1 MOL      0.076161
    178 H79        -4.3680   -0.4880    5.2740 h1        1 MOL      0.076161
    179 H80        -4.7510   -0.7290    2.5170 hn        1 MOL      0.138442
    180 Ca1         2.5720    0.1790    0.0740 Ca        1 MOL      1.758830
    181 O27         1.8680   -0.3480    2.6170 oh        1 MOL     -0.846702
    182 H81         1.3570   -0.9130    3.1920 ho        1 MOL      0.400149
    183 H82         2.1580    0.3660    3.1790 ho        1 MOL      0.400149
    184 O28         1.0980    1.6930   -1.6060 oh        1 MOL     -0.846702
    185 H83         0.8090    1.0110   -2.2010 ho        1 MOL      0.400149
    186 H84         1.8290    2.1170   -2.0450 ho        1 MOL      0.400149
    187 O29         4.3820    1.3280    2.2900 oh        1 MOL     -0.846702
    188 H85         5.1750    0.9850    2.7010 ho        1 MOL      0.400149
    189 H86         3.9470    1.8220    2.9830 ho        1 MOL      0.400149
@<TRIPOS>BOND
     1    1    2 1   
     2    1    4 1   
     3    1    5 1   
     4    1    6 1   
     5    2    3 2   
     6    2    7 1   
     7    7    8 1   
     8    7   15 1   
     9    8    9 1   
    10    8   11 1   
    11    8   16 1   
    12    9   10 2   
    13    9   19 1   
    14   11   12 1   
    15   11   17 1   
    16   11   18 1   
    17   12   13 1   
    18   12   14 1   
    19   19   20 1   
    20   19   27 1   
    21   20   21 1   
    22   20   23 1   
    23   20   28 1   
    24   21   22 2   
    25   21   38 1   
    26   23   24 1   
    27   23   25 1   
    28   23   29 1   
    29   24   26 1   
    30   24   30 1   
    31   24   31 1   
    32   25   32 1   
    33   25   33 1   
    34   25   34 1   
    35   26   35 1   
    36   26   36 1   
    37   26   37 1   
    38   38   39 1   
    39   38   46 1   
    40   39   40 1   
    41   39   42 1   
    42   39   47 1   
    43   40   41 2   
    44   40   50 1   
    45   42   43 1   
    46   42   48 1   
    47   42   49 1   
    48   43   44 1   
    49   43   45 1   
    50   50   51 1   
    51   50   54 1   
    52   51   52 1   
    53   51   55 1   
    54   51   56 1   
    55   52   53 2   
    56   52   57 1   
    57   57   58 1   
    58   57   65 1   
    59   58   59 1   
    60   58   61 1   
    61   58   66 1   
    62   59   60 2   
    63   59   69 1   
    64   61   62 1   
    65   61   67 1   
    66   61   68 1   
    67   62   63 1   
    68   62   64 1   
    69   69   70 1   
    70   69   73 1   
    71   70   71 1   
    72   70   74 1   
    73   70   75 1   
    74   71   72 2   
    75   71   76 1   
    76   76   77 1   
    77   76   85 1   
    78   77   78 1   
    79   77   80 1   
    80   77   86 1   
    81   78   79 2   
    82   78   93 1   
    83   80   81 1   
    84   80   87 1   
    85   80   88 1   
    86   81   82 1   
    87   81   89 1   
    88   81   90 1   
    89   82   83 1   
    90   82   84 2   
    91   83   91 1   
    92   83   92 1   
    93   93   94 1   
    94   93  100 1   
    95   94   95 1   
    96   94   97 1   
    97   94  101 1   
    98   95   96 2   
    99   95  109 1   
   100   97   98 1   
   101   97   99 1   
   102   97  102 1   
   103   98  103 1   
   104   98  104 1   
   105   98  105 1   
   106   99  106 1   
   107   99  107 1   
   108   99  108 1   
   109  109  110 1   
   110  109  117 1   
   111  110  111 1   
   112  110  113 1   
   113  110  118 1   
   114  111  112 2   
   115  111  123 1   
   116  113  114 1   
   117  113  119 1   
   118  113  120 1   
   119  114  115 1   
   120  114  116 2   
   121  115  121 1   
   122  115  122 1   
   123  123  124 1   
   124  123  135 1   
   125  124  125 1   
   126  124  127 1   
   127  124  136 1   
   128  125  126 2   
   129  125  144 1   
   130  127  128 1   
   131  127  137 1   
   132  127  138 1   
   133  128  129 ar  
   134  128  130 ar  
   135  129  131 ar  
   136  129  139 1   
   137  130  132 ar  
   138  130  140 1   
   139  131  133 ar  
   140  131  141 1   
   141  132  133 ar  
   142  132  142 1   
   143  133  134 1   
   144  134  143 1   
   145  144  145 1   
   146  144  153 1   
   147  145  146 1   
   148  145  148 1   
   149  145  154 1   
   150  146  147 2   
   151  146  159 1   
   152  148  149 1   
   153  148  155 1   
   154  148  156 1   
   155  149  150 1   
   156  149  157 1   
   157  149  158 1   
   158  150  151 1   
   159  150  152 1   
   160  159  160 1   
   161  159  168 1   
   162  160  161 1   
   163  160  163 1   
   164  160  169 1   
   165  161  162 2   
   166  161  174 1   
   167  163  164 1   
   168  163  170 1   
   169  163  171 1   
   170  164  165 1   
   171  164  172 1   
   172  164  173 1   
   173  165  166 1   
   174  165  167 1   
   175  174  175 1   
   176  174  179 1   
   177  175  176 1   
   178  175  177 1   
   179  175  178 1   
   180  181  182 1   
   181  181  183 1   
   182  184  185 1   
   183  184  186 1   
   184  187  188 1   
   185  187  189 1   
@<TRIPOS>SUBSTRUCTURE
     1 MOL         1 TEMP              0 ****  ****    0 ROOT
