@<TRIPOS>MOLECULE
MOL
  189   185     1     0     0
SMALL
resp


@<TRIPOS>ATOM
      1 C1          0.0710    3.3820    4.4400 c3        1 MOL     -0.235283
      2 C2         -0.6230    2.9150    3.2010 c         1 MOL      0.559794
      3 O1         -0.0570    3.0700    2.1280 o         1 MOL     -0.544812
      4 H1          0.4390    2.5200    4.9960 hc        1 MOL      0.063704
      5 H2          0.9100    4.0220    4.1670 hc        1 MOL      0.063704
      6 H3         -0.6290    3.9420    5.0590 hc        1 MOL      0.063704
      7 N1         -1.8640    2.3820    3.2650 n         1 MOL     -0.467854
      8 C3         -2.5530    1.8170    2.0790 c3        1 MOL      0.143079
      9 C4         -3.3780    2.9700    1.4190 c         1 MOL      0.312334
     10 O2         -4.6360    3.0660    1.6510 o         1 MOL     -0.459766
     11 C5         -3.5360    0.6580    2.4990 c3        1 MOL     -0.224400
     12 C6         -4.3120    0.0160    1.3670 c         1 MOL      0.810923
     13 O3         -3.8240    0.0400    0.2640 o         1 MOL     -0.707570
     14 O4         -5.3820   -0.5790    1.6370 o         1 MOL     -0.707570
     15 H4         -2.2140    2.1750    4.1980 hn        1 MOL      0.293709
     16 H5         -1.7780    1.4610    1.3980 h1        1 MOL      0.059602
     17 H6         -4.2810    1.0520    3.1980 hc        1 MOL      0.039308
     18 H7         -2.8930   -0.0860    2.9840 hc        1 MOL      0.039308
     19 N2         -2.6410    3.7590    0.6530 n         1 MOL     -0.424736
     20 C7         -3.2130    5.0420    0.0020 c3        1 MOL      0.124321
     21 C8         -4.1310    4.7850   -1.2340 c         1 MOL      0.402371
     22 O5         -5.0360    5.5660   -1.5540 o         1 MOL     -0.555530
     23 C9         -2.1480    6.0460   -0.3130 c3        1 MOL     -0.109223
     24 C10        -1.7220    6.7300    0.9700 c3        1 MOL      0.194171
     25 C11        -1.1480    8.2260    0.7320 c3        1 MOL     -0.138490
     26 C12        -0.8250    8.7670    2.1350 c3        1 MOL      0.067031
     27 N3          0.3260    8.1690    2.7070 n4        1 MOL     -0.434977
     28 H8         -1.6490    3.5980    0.7140 hn        1 MOL      0.354163
     29 H9         -3.9210    5.4670    0.7160 h1        1 MOL      0.067671
     30 H10        -2.6440    6.8150   -0.9000 hc        1 MOL      0.038540
     31 H11        -1.2430    5.6870   -0.8040 hc        1 MOL      0.038540
     32 H12        -0.9970    6.1000    1.4670 hc        1 MOL     -0.039438
     33 H13        -2.5590    6.7890    1.6700 hc        1 MOL     -0.039438
     34 H14        -1.9470    8.9100    0.4580 hc        1 MOL      0.073265
     35 H15        -0.2940    8.3590    0.0600 hc        1 MOL      0.073265
     36 H16        -1.6720    8.5740    2.7860 hx        1 MOL      0.076650
     37 H17        -0.7800    9.8580    2.1450 hx        1 MOL      0.076650
     38 H18         1.2020    8.3230    2.2200 hn        1 MOL      0.346525
     39 H19         0.4470    8.5760    3.6200 hn        1 MOL      0.346525
     40 H20         0.2060    7.1750    2.8380 hn        1 MOL      0.346525
     41 N4         -3.8640    3.7620   -2.0450 n         1 MOL     -0.282853
     42 C13        -4.6980    3.4070   -3.1900 c3        1 MOL      0.141320
     43 C14        -5.8980    2.4900   -2.8440 c         1 MOL      0.393618
     44 O6         -6.6810    2.2830   -3.7140 o         1 MOL     -0.535670
     45 C15        -3.8280    2.7920   -4.2830 c3        1 MOL     -0.472960
     46 C16        -2.8910    1.6520   -3.7770 c         1 MOL      0.815650
     47 O7         -2.9370    1.1660   -2.6380 o         1 MOL     -0.687175
     48 O8         -2.0640    1.1410   -4.5290 o         1 MOL     -0.687175
     49 H21        -3.0170    3.2390   -1.8330 hn        1 MOL      0.222602
     50 H22        -5.1870    4.2870   -3.6150 h1        1 MOL      0.094744
     51 H23        -3.2840    3.6040   -4.7720 hc        1 MOL      0.131456
     52 H24        -4.4160    2.3520   -5.0820 hc        1 MOL      0.131456
     53 N5         -6.0510    1.8900   -1.6480 n         1 MOL     -0.095605
     54 C17        -7.2630    1.1860   -1.1340 c3        1 MOL     -0.298571
     55 C18        -7.3220   -0.3070   -1.3910 c         1 MOL      0.548381
     56 O9         -8.3750   -0.9070   -1.2870 o         1 MOL     -0.589041
     57 H25        -5.4530    2.2290   -0.9050 hn        1 MOL      0.154536
     58 H26        -8.1610    1.6830   -1.4950 h1        1 MOL      0.145100
     59 H27        -7.3360    1.3790   -0.0640 h1        1 MOL      0.145100
     60 N6         -6.2560   -0.9500   -1.8120 n         1 MOL     -0.166555
     61 C19        -6.4080   -2.4160   -2.1950 c3        1 MOL     -0.095602
     62 C20        -6.6010   -3.4310   -1.0970 c         1 MOL      0.412307
     63 O10        -7.1320   -4.5290   -1.3230 o         1 MOL     -0.545336
     64 C21        -5.2320   -2.9510   -3.0150 c3        1 MOL     -0.158096
     65 C22        -3.8510   -2.6060   -2.3970 c         1 MOL      0.710366
     66 O11        -3.5660   -2.8510   -1.1830 o         1 MOL     -0.714289
     67 O12        -2.9400   -2.1610   -3.1580 o         1 MOL     -0.714289
     68 H28        -5.3710   -0.4590   -1.7850 hn        1 MOL      0.134309
     69 H29        -7.3020   -2.3970   -2.8000 h1        1 MOL      0.133341
     70 H30        -5.2460   -2.2150   -3.8270 hc        1 MOL      0.062032
     71 H31        -5.2940   -3.9240   -3.4960 hc        1 MOL      0.062032
     72 N7         -6.3880   -3.0270    0.1630 n         1 MOL     -0.064638
     73 C23        -6.5260   -3.7180    1.4750 c3        1 MOL     -0.224374
     74 C24        -5.2310   -4.3310    1.9530 c         1 MOL      0.657054
     75 O13        -5.3600   -5.2640    2.7560 o         1 MOL     -0.578409
     76 H32        -6.3150   -2.0180    0.2370 hn        1 MOL      0.203423
     77 H33        -7.3130   -4.4700    1.4930 h1        1 MOL      0.101110
     78 H34        -6.6490   -3.0440    2.3270 h1        1 MOL      0.101110
     79 N8         -4.0390   -3.8000    1.4910 n         1 MOL     -0.416911
     80 C25        -2.7800   -4.3730    1.6680 c3        1 MOL     -0.058944
     81 C26        -1.6760   -3.3480    1.6940 c         1 MOL      0.740596
     82 O14        -1.8460   -2.2790    1.1160 o         1 MOL     -0.619463
     83 C27        -2.4580   -5.4590    0.7300 c3        1 MOL      0.474585
     84 C28        -2.9560   -6.8900    1.0610 c3        1 MOL     -0.486762
     85 O15        -3.0220   -5.2500   -0.5750 oh        1 MOL     -0.677389
     86 H35        -4.0670   -2.9260    0.9830 hn        1 MOL      0.234073
     87 H36        -2.9300   -4.8170    2.6580 h1        1 MOL      0.031960
     88 H37        -1.3820   -5.6320    0.6870 h1        1 MOL     -0.054410
     89 H38        -3.2110   -4.3200   -0.6840 ho        1 MOL      0.456067
     90 H39        -4.0490   -6.9580    1.1130 hc        1 MOL      0.121926
     91 H40        -2.7090   -7.5470    0.2240 hc        1 MOL      0.121926
     92 H41        -2.6340   -7.2740    2.0200 hc        1 MOL      0.121926
     93 N9         -0.5220   -3.6850    2.3090 n         1 MOL     -0.671478
     94 C29         0.6120   -2.7010    2.5090 c3        1 MOL      0.022055
     95 C30         1.9750   -3.1700    1.8900 c         1 MOL      0.640508
     96 O16         2.5280   -4.2330    2.1680 o         1 MOL     -0.586217
     97 C31         0.7180   -2.3590    4.0230 c3        1 MOL      0.185661
     98 C32        -0.4690   -1.4630    4.5170 c3        1 MOL      0.170782
     99 C33         1.9950   -1.5780    4.2480 c3        1 MOL     -0.481000
    100 C34        -0.4780   -1.3720    6.0960 c3        1 MOL     -0.148858
    101 H42        -0.4900   -4.5720    2.7900 hn        1 MOL      0.314955
    102 H43         0.3650   -1.7440    2.0460 h1        1 MOL      0.081316
    103 H44         0.7610   -3.2400    4.6640 hc        1 MOL      0.009143
    104 H45        -1.3260   -2.0650    4.1910 hc        1 MOL     -0.036251
    105 H46        -0.4740   -0.4770    4.0530 hc        1 MOL     -0.036251
    106 H47         2.1290   -1.3060    5.2960 hc        1 MOL      0.097046
    107 H48         2.8480   -2.0760    3.7950 hc        1 MOL      0.097046
    108 H49         1.8650   -0.6400    3.7050 hc        1 MOL      0.097046
    109 H50         0.3790   -0.8250    6.4990 hc        1 MOL      0.031130
    110 H51        -1.4030   -0.8800    6.4100 hc        1 MOL      0.031130
    111 H52        -0.4920   -2.3760    6.5250 hc        1 MOL      0.031130
    112 N10         2.6490   -2.3620    1.0460 n         1 MOL     -0.332689
    113 C35         3.8150   -2.6140    0.2020 c3        1 MOL      0.069991
    114 C36         5.1640   -2.0250    0.7360 c         1 MOL      0.450963
    115 O17         5.1750   -1.1980    1.5720 o         1 MOL     -0.412634
    116 C37         3.6640   -2.1770   -1.2820 c3        1 MOL      0.016595
    117 C38         2.4890   -2.9080   -2.0210 c3        1 MOL     -0.404432
    118 O18         3.5280   -0.7770   -1.3730 oh        1 MOL     -0.286234
    119 H53         2.2890   -1.4120    0.9950 hn        1 MOL      0.348631
    120 H54         4.0780   -3.6720    0.2020 h1        1 MOL      0.071540
    121 H55         4.5660   -2.5300   -1.7920 h1        1 MOL      0.004887
    122 H56         3.2190   -0.6140   -2.2680 ho        1 MOL      0.343693
    123 H57         2.7290   -3.9640   -1.9850 hc        1 MOL      0.120487
    124 H58         1.5120   -2.7740   -1.5490 hc        1 MOL      0.120487
    125 H59         2.4080   -2.6910   -3.0880 hc        1 MOL      0.120487
    126 N11         6.3100   -2.5280    0.2720 n         1 MOL     -0.422738
    127 C39         7.6280   -1.8930    0.6230 c3        1 MOL      0.065043
    128 C40         7.6570   -0.3670    0.2140 c         1 MOL      0.136011
    129 O19         8.1830    0.5110    0.8810 o         1 MOL     -0.479186
    130 C41         8.8570   -2.5230   -0.0250 c3        1 MOL      0.218763
    131 C42         9.1370   -3.9590    0.1040 c3        1 MOL     -0.570053
    132 O20         8.7950   -2.3580   -1.4320 oh        1 MOL     -0.628312
    133 H60         6.2520   -3.4590   -0.1310 hn        1 MOL      0.289901
    134 H61         7.9200   -1.8940    1.6820 h1        1 MOL      0.104771
    135 H62         9.7060   -1.9480    0.3360 h1        1 MOL      0.060648
    136 H63         9.6050   -2.6760   -1.8400 ho        1 MOL      0.390596
    137 H64         8.3620   -4.5590   -0.3850 hc        1 MOL      0.167655
    138 H65        10.0910   -4.1850   -0.3620 hc        1 MOL      0.167655
    139 H66         9.2400   -4.2390    1.1570 hc        1 MOL      0.167655
    140 N12         7.0450   -0.0640   -0.9230 n         1 MOL      0.354347
    141 C43         6.8280    1.2560   -1.5380 c3        1 MOL     -0.078336
    142 C44         5.9570    2.0550   -0.6200 c         1 MOL      0.207336
    143 O21         6.1570    3.2720   -0.5000 o         1 MOL     -0.500910
    144 C45         6.3750    1.2350   -2.9820 c3        1 MOL     -0.068124
    145 C46         7.3480    0.3170   -3.7870 c3        1 MOL     -0.181742
    146 C47         8.8310    0.6230   -3.7540 c3        1 MOL      0.233362
    147 C48         9.5590   -0.0610   -4.9510 c3        1 MOL     -0.115423
    148 N13        10.9770   -0.2370   -4.6930 n4        1 MOL     -0.223863
    149 H67         6.6090   -0.8340   -1.4000 hn        1 MOL      0.060541
    150 H68         7.7870    1.7850   -1.4900 h1        1 MOL      0.050656
    151 H69         6.3660    2.2350   -3.4190 hc        1 MOL      0.079530
    152 H70         5.3190    0.9730   -3.0210 hc        1 MOL      0.079530
    153 H71         7.0650    0.5450   -4.8150 hc        1 MOL      0.026857
    154 H72         7.1820   -0.7240   -3.5140 hc        1 MOL      0.026857
    155 H73         9.1070    0.2240   -2.7710 hc        1 MOL     -0.027804
    156 H74         8.9940    1.6990   -3.7700 hc        1 MOL     -0.027804
    157 H75         9.4640    0.5290   -5.8610 hx        1 MOL      0.120988
    158 H76         9.1240   -1.0490   -5.1260 hx        1 MOL      0.120988
    159 H77        11.3560   -0.9470   -5.3040 hn        1 MOL      0.249811
    160 H78        11.4790    0.6430   -4.8010 hn        1 MOL      0.249811
    161 H79        11.2470   -0.4810   -3.7530 hn        1 MOL      0.249811
    162 N14         4.9200    1.4420    0.0220 n         1 MOL      0.507549
    163 C49         4.0240    2.1990    0.9100 c3        1 MOL     -0.541638
    164 C50         4.5840    2.4050    2.3100 c         1 MOL      0.596414
    165 O22         4.3520    3.3870    2.9730 o         1 MOL     -0.555815
    166 C51         2.6990    1.4380    0.9660 c3        1 MOL      0.217909
    167 C52         1.7660    1.7040   -0.2550 c3        1 MOL     -0.326889
    168 C53         0.4770    0.8540   -0.2230 c         1 MOL      0.850061
    169 O23        -0.6080    1.4000   -0.5250 o         1 MOL     -0.813104
    170 O24         0.4680   -0.3860   -0.1400 o         1 MOL     -0.813104
    171 H80         4.6660    0.5230   -0.3010 hn        1 MOL     -0.299317
    172 H81         3.7150    3.1860    0.5630 h1        1 MOL      0.168324
    173 H82         2.1490    1.7340    1.8650 hc        1 MOL     -0.016421
    174 H83         2.9030    0.3900    1.1830 hc        1 MOL     -0.016421
    175 H84         2.2940    1.4900   -1.1770 hc        1 MOL      0.063142
    176 H85         1.5260    2.7540   -0.0690 hc        1 MOL      0.063142
    177 N15         5.4610    1.4580    2.7720 n         1 MOL     -0.261089
    178 C54         6.2860    1.5320    3.9540 c3        1 MOL     -0.284004
    179 H86         6.2360    0.5860    4.4920 h1        1 MOL      0.112603
    180 H87         7.3180    1.7320    3.6650 h1        1 MOL      0.112603
    181 H88         5.9260    2.3350    4.5980 h1        1 MOL      0.112603
    182 H89         5.6520    0.6980    2.1350 hn        1 MOL      0.228052
    183 Ca1        -1.7910   -0.7280   -1.1790 Ca        1 MOL      1.767090
    184 O25        -0.2070   -0.5170   -3.3950 oh        1 MOL     -0.785143
    185 H90         0.5910   -0.7870   -3.8590 ho        1 MOL      0.374303
    186 H91        -0.7360   -0.0850   -4.0670 ho        1 MOL      0.374303
    187 O26        -0.8210   -3.4610   -1.8990 oh        1 MOL     -0.785143
    188 H92        -1.3190   -4.2820   -1.8370 ho        1 MOL      0.374303
    189 H93        -0.8460   -3.2490   -2.8390 ho        1 MOL      0.374303
@<TRIPOS>BOND
     1    1    2 1   
     2    1    4 1   
     3    1    5 1   
     4    1    6 1   
     5    2    3 2   
     6    2    7 1   
     7    7    8 1   
     8    7   15 1   
     9    8    9 1   
    10    8   11 1   
    11    8   16 1   
    12    9   10 2   
    13    9   19 1   
    14   11   12 1   
    15   11   17 1   
    16   11   18 1   
    17   12   13 1   
    18   12   14 1   
    19   19   20 1   
    20   19   28 1   
    21   20   21 1   
    22   20   23 1   
    23   20   29 1   
    24   21   22 2   
    25   21   41 1   
    26   23   24 1   
    27   23   30 1   
    28   23   31 1   
    29   24   25 1   
    30   24   32 1   
    31   24   33 1   
    32   25   26 1   
    33   25   34 1   
    34   25   35 1   
    35   26   27 1   
    36   26   36 1   
    37   26   37 1   
    38   27   38 1   
    39   27   39 1   
    40   27   40 1   
    41   41   42 1   
    42   41   49 1   
    43   42   43 1   
    44   42   45 1   
    45   42   50 1   
    46   43   44 2   
    47   43   53 1   
    48   45   46 1   
    49   45   51 1   
    50   45   52 1   
    51   46   47 1   
    52   46   48 1   
    53   53   54 1   
    54   53   57 1   
    55   54   55 1   
    56   54   58 1   
    57   54   59 1   
    58   55   56 2   
    59   55   60 1   
    60   60   61 1   
    61   60   68 1   
    62   61   62 1   
    63   61   64 1   
    64   61   69 1   
    65   62   63 2   
    66   62   72 1   
    67   64   65 1   
    68   64   70 1   
    69   64   71 1   
    70   65   66 1   
    71   65   67 1   
    72   72   73 1   
    73   72   76 1   
    74   73   74 1   
    75   73   77 1   
    76   73   78 1   
    77   74   75 2   
    78   74   79 1   
    79   79   80 1   
    80   79   86 1   
    81   80   81 1   
    82   80   83 1   
    83   80   87 1   
    84   81   82 2   
    85   81   93 1   
    86   83   84 1   
    87   83   85 1   
    88   83   88 1   
    89   84   90 1   
    90   84   91 1   
    91   84   92 1   
    92   85   89 1   
    93   93   94 1   
    94   93  101 1   
    95   94   95 1   
    96   94   97 1   
    97   94  102 1   
    98   95   96 2   
    99   95  112 1   
   100   97   98 1   
   101   97   99 1   
   102   97  103 1   
   103   98  100 1   
   104   98  104 1   
   105   98  105 1   
   106   99  106 1   
   107   99  107 1   
   108   99  108 1   
   109  100  109 1   
   110  100  110 1   
   111  100  111 1   
   112  112  113 1   
   113  112  119 1   
   114  113  114 1   
   115  113  116 1   
   116  113  120 1   
   117  114  115 2   
   118  114  126 1   
   119  116  117 1   
   120  116  118 1   
   121  116  121 1   
   122  117  123 1   
   123  117  124 1   
   124  117  125 1   
   125  118  122 1   
   126  126  127 1   
   127  126  133 1   
   128  127  128 1   
   129  127  130 1   
   130  127  134 1   
   131  128  129 2   
   132  128  140 1   
   133  130  131 1   
   134  130  132 1   
   135  130  135 1   
   136  131  137 1   
   137  131  138 1   
   138  131  139 1   
   139  132  136 1   
   140  140  141 1   
   141  140  149 1   
   142  141  142 1   
   143  141  144 1   
   144  141  150 1   
   145  142  143 2   
   146  142  162 1   
   147  144  145 1   
   148  144  151 1   
   149  144  152 1   
   150  145  146 1   
   151  145  153 1   
   152  145  154 1   
   153  146  147 1   
   154  146  155 1   
   155  146  156 1   
   156  147  148 1   
   157  147  157 1   
   158  147  158 1   
   159  148  159 1   
   160  148  160 1   
   161  148  161 1   
   162  162  163 1   
   163  162  171 1   
   164  163  164 1   
   165  163  166 1   
   166  163  172 1   
   167  164  165 2   
   168  164  177 1   
   169  166  167 1   
   170  166  173 1   
   171  166  174 1   
   172  167  168 1   
   173  167  175 1   
   174  167  176 1   
   175  168  169 1   
   176  168  170 1   
   177  177  178 1   
   178  177  182 1   
   179  178  179 1   
   180  178  180 1   
   181  178  181 1   
   182  184  185 1   
   183  184  186 1   
   184  187  188 1   
   185  187  189 1   
@<TRIPOS>SUBSTRUCTURE
     1 MOL         1 TEMP              0 ****  ****    0 ROOT
