@<TRIPOS>MOLECULE
MOL
  175   173     1     0     0
SMALL
resp


@<TRIPOS>ATOM
      1 C1          0.8030    4.0880    5.5010 c3        1 MOL     -0.346354
      2 C2          0.2020    4.0800    4.1100 c         1 MOL      0.728153
      3 O1          0.8840    4.2020    3.0800 o         1 MOL     -0.568119
      4 H1          0.1670    4.6710    6.1670 hc        1 MOL      0.088404
      5 H2          0.8750    3.0650    5.8710 hc        1 MOL      0.088404
      6 H3          1.7970    4.5340    5.4650 hc        1 MOL      0.088404
      7 N1         -1.1310    3.9480    3.9700 n         1 MOL     -0.613839
      8 C3         -1.8260    3.6810    2.7140 c3        1 MOL      0.179381
      9 C4         -1.7740    4.8110    1.6340 c         1 MOL      0.585901
     10 O2         -2.0200    5.9680    2.0250 o         1 MOL     -0.600327
     11 C5         -3.3040    3.2950    3.0240 c3        1 MOL     -0.427917
     12 C6         -4.0820    2.7330    1.8430 c         1 MOL      0.748794
     13 O3         -5.2940    2.5440    1.9820 o         1 MOL     -0.645849
     14 O4         -3.4890    2.1200    0.8840 o         1 MOL     -0.645849
     15 H4         -1.6950    3.9130    4.8040 hn        1 MOL      0.313094
     16 H5         -1.3760    2.8140    2.2290 h1        1 MOL      0.011263
     17 H6         -3.6890    4.2340    3.4270 hc        1 MOL      0.101760
     18 H7         -3.2880    2.5870    3.8450 hc        1 MOL      0.101760
     19 N2         -1.4920    4.5100    0.3900 n         1 MOL     -0.424665
     20 C7         -1.5280    5.3480   -0.8190 c3        1 MOL      0.015154
     21 C8         -2.4190    4.8170   -1.9410 c         1 MOL      0.654636
     22 O5         -2.3380    5.2180   -3.0540 o         1 MOL     -0.581990
     23 C9         -0.0140    5.3590   -1.2380 c3        1 MOL     -0.139889
     24 H8         -1.2170    3.5550    0.2240 hn        1 MOL      0.430595
     25 H9         -1.8500    6.3520   -0.5740 h1        1 MOL      0.067702
     26 H10         0.1800    5.9270   -2.1500 hc        1 MOL      0.036420
     27 H11         0.5430    5.7810   -0.4130 hc        1 MOL      0.036420
     28 H12         0.4020    4.3540   -1.3470 hc        1 MOL      0.036420
     29 N3         -3.3350    3.8870   -1.6800 n         1 MOL     -0.627650
     30 C10        -4.1390    3.3900   -2.8190 c3        1 MOL      0.284235
     31 C11        -5.4320    2.7380   -2.4380 c         1 MOL      0.412448
     32 O6         -6.2700    2.5910   -3.2690 o         1 MOL     -0.555647
     33 C12        -3.4160    2.4180   -3.7590 c3        1 MOL     -0.286289
     34 C13        -3.2630    1.0180   -3.3180 c         1 MOL      0.834499
     35 O7         -3.5310    0.7250   -2.1300 o         1 MOL     -0.723003
     36 O8         -2.8990    0.1860   -4.1550 o         1 MOL     -0.723003
     37 H13        -3.3190    3.2630   -0.8850 hn        1 MOL      0.259187
     38 H14        -4.3870    4.2860   -3.3870 h1        1 MOL      0.047564
     39 H15        -2.4330    2.8240   -4.0040 hc        1 MOL      0.054591
     40 H16        -4.0640    2.3770   -4.6260 hc        1 MOL      0.054591
     41 N4         -5.6800    2.3380   -1.1690 n         1 MOL     -0.277847
     42 C14        -7.0290    1.6770   -0.8240 c3        1 MOL     -0.148090
     43 C15        -7.3400    0.1980   -1.3940 c         1 MOL      0.474977
     44 O9         -8.4380   -0.2290   -1.4060 o         1 MOL     -0.582581
     45 H17        -4.8900    2.2050   -0.5590 hn        1 MOL      0.077910
     46 H18        -7.8970    2.3090   -1.0310 h1        1 MOL      0.100295
     47 H19        -7.1300    1.5140    0.2490 h1        1 MOL      0.100295
     48 N5         -6.3000   -0.4750   -1.7920 n         1 MOL     -0.200405
     49 C16        -6.3650   -1.8400   -2.2540 c3        1 MOL     -0.027741
     50 C17        -6.3650   -2.9620   -1.1870 c         1 MOL      0.432981
     51 O10        -6.4320   -4.1590   -1.5290 o         1 MOL     -0.554971
     52 C18        -5.1580   -2.0480   -3.1840 c3        1 MOL     -0.091720
     53 C19        -3.8580   -2.2070   -2.4440 c         1 MOL      0.749487
     54 N6         -2.8420   -2.5880   -3.1870 n         1 MOL     -0.760907
     55 O11        -3.7000   -1.8950   -1.2380 o         1 MOL     -0.717890
     56 H20        -5.4570    0.0190   -2.0560 hn        1 MOL      0.278954
     57 H21        -7.2600   -2.0090   -2.8520 h1        1 MOL      0.085540
     58 H22        -5.0710   -1.2980   -3.9670 hc        1 MOL      0.024830
     59 H23        -5.3460   -2.9810   -3.7140 hc        1 MOL      0.024830
     60 H24        -2.9350   -2.5590   -4.1910 hn        1 MOL      0.373229
     61 H25        -1.9360   -2.6000   -2.7470 hn        1 MOL      0.373229
     62 N7         -6.2200   -2.5840    0.0630 n         1 MOL     -0.215581
     63 C20        -6.2240   -3.4290    1.2870 c3        1 MOL     -0.188080
     64 C21        -4.9600   -4.2080    1.6880 c         1 MOL      0.449363
     65 O12        -5.0320   -4.8790    2.7460 o         1 MOL     -0.569761
     66 H26        -6.1200   -1.5850    0.1600 hn        1 MOL      0.185842
     67 H27        -7.1180   -4.0620    1.3510 h1        1 MOL      0.111018
     68 H28        -6.4610   -2.8860    2.2080 h1        1 MOL      0.111018
     69 N8         -3.8560   -4.0900    0.9030 n         1 MOL     -0.098813
     70 C22        -2.4430   -4.5400    1.1750 c3        1 MOL     -0.292569
     71 C23        -1.6070   -3.4690    1.6620 c         1 MOL      0.824301
     72 O13        -1.8710   -2.3140    1.3210 o         1 MOL     -0.728621
     73 C24        -1.7850   -5.3410    0.0530 c3        1 MOL      0.479903
     74 C25        -2.3830   -6.7770   -0.0830 c3        1 MOL     -0.400298
     75 O14        -1.9220   -4.7290   -1.2400 oh        1 MOL     -0.676534
     76 H29        -3.8340   -3.4270    0.1430 hn        1 MOL      0.203049
     77 H30        -2.5110   -5.2680    1.9900 h1        1 MOL      0.086994
     78 H31        -0.6930   -5.3850    0.1420 h1        1 MOL     -0.020909
     79 H32        -1.1550   -4.1960   -1.4860 ho        1 MOL      0.452836
     80 H33        -3.4720   -6.7350   -0.1880 hc        1 MOL      0.092313
     81 H34        -1.9130   -7.2550   -0.9420 hc        1 MOL      0.092313
     82 H35        -2.1450   -7.3020    0.8330 hc        1 MOL      0.092313
     83 N9         -0.5870   -3.7490    2.4900 n         1 MOL     -0.538529
     84 C26         0.5940   -2.8740    2.4890 c3        1 MOL      0.061438
     85 C27         1.4420   -3.2630    1.2590 c         1 MOL      0.331841
     86 O15         1.6300   -4.4420    0.9450 o         1 MOL     -0.530108
     87 C28         1.4540   -2.9200    3.7390 c3        1 MOL      0.147692
     88 C29         0.5870   -2.5530    5.0030 c3        1 MOL      0.121824
     89 C30         2.7320   -2.1690    3.6480 c3        1 MOL     -0.226874
     90 C31         1.1410   -3.3140    6.2630 c3        1 MOL     -0.336446
     91 H36        -0.4780   -4.6270    2.9750 hn        1 MOL      0.278688
     92 H37         0.3680   -1.8180    2.3340 h1        1 MOL      0.010282
     93 H38         1.8650   -3.9220    3.9090 hc        1 MOL      0.016377
     94 H39        -0.4090   -2.9160    4.7220 hc        1 MOL     -0.004910
     95 H40         0.4590   -1.5060    5.2660 hc        1 MOL     -0.004910
     96 H41         3.2490   -2.3570    4.5970 hc        1 MOL      0.034518
     97 H42         3.4370   -2.4750    2.8700 hc        1 MOL      0.034518
     98 H43         2.6040   -1.0840    3.5980 hc        1 MOL      0.034518
     99 H44         1.0920   -4.4020    6.2300 hc        1 MOL      0.074604
    100 H45         2.2220   -3.1460    6.2970 hc        1 MOL      0.074604
    101 H46         0.6900   -2.8590    7.1530 hc        1 MOL      0.074604
    102 N10         2.0360   -2.2550    0.6200 n         1 MOL     -0.255691
    103 C32         2.7440   -2.3040   -0.6670 c3        1 MOL      0.147031
    104 C33         4.1690   -1.6590   -0.5920 c         1 MOL      0.307867
    105 O16         4.3470   -0.8510    0.3240 o         1 MOL     -0.312209
    106 C34         1.9560   -1.6460   -1.8300 c3        1 MOL     -0.568111
    107 C35         0.4540   -1.9610   -1.6880 c         1 MOL      0.987933
    108 O17        -0.3330   -1.0630   -1.4550 o         1 MOL     -0.775755
    109 O18         0.0370   -3.1200   -1.9940 o         1 MOL     -0.775755
    110 H47         2.0700   -1.3430    1.0670 hn        1 MOL      0.388069
    111 H48         2.8890   -3.3430   -0.9810 h1        1 MOL      0.068115
    112 H49         2.2820   -2.2630   -2.6740 hc        1 MOL      0.149291
    113 H50         2.1090   -0.5770   -1.9490 hc        1 MOL      0.149291
    114 N11         5.1060   -1.8700   -1.5210 n         1 MOL     -0.527682
    115 C36         6.4310   -1.2760   -1.4230 c3        1 MOL      0.202289
    116 C37         6.4460    0.2320   -1.1240 c         1 MOL      0.249303
    117 O19         7.0010    0.5790   -0.1130 o         1 MOL     -0.454990
    118 C38         7.3300   -1.8080   -2.5560 c3        1 MOL     -0.260042
    119 C39         8.7690   -1.7500   -2.3520 ca        1 MOL      0.261789
    120 C40         9.5660   -0.9860   -3.1750 ca        1 MOL     -0.278228
    121 C41         9.2660   -2.6100   -1.3530 ca        1 MOL     -0.278228
    122 C42        10.9530   -0.9900   -2.9240 ca        1 MOL     -0.009088
    123 C43        10.6450   -2.7490   -1.3350 ca        1 MOL     -0.009088
    124 C44        11.5010   -1.9630   -2.0800 ca        1 MOL     -0.216736
    125 H51         4.8410   -2.4440   -2.3080 hn        1 MOL      0.333759
    126 H52         6.8550   -1.6550   -0.4890 h1        1 MOL      0.120896
    127 H53         7.1540   -1.3330   -3.5230 hc        1 MOL      0.078146
    128 H54         7.0750   -2.8210   -2.8370 hc        1 MOL      0.078146
    129 H55         9.1080   -0.3250   -3.8880 ha        1 MOL      0.147142
    130 H56         8.6150   -3.1900   -0.7170 ha        1 MOL      0.147142
    131 H57        11.6350   -0.4160   -3.5340 ha        1 MOL      0.085588
    132 H58        11.0290   -3.4790   -0.6380 ha        1 MOL      0.085588
    133 H59        12.5590   -2.1150   -1.9590 ha        1 MOL      0.124677
    134 N12         5.8870    1.1870   -1.9400 n         1 MOL     -0.065175
    135 C45         5.7080    2.6450   -1.6880 c3        1 MOL     -0.046873
    136 C46         5.1920    2.9670   -0.2940 c         1 MOL      0.282584
    137 O20         5.3570    4.0700    0.2560 o         1 MOL     -0.518031
    138 C47         4.7860    3.0980   -2.8390 c3        1 MOL      0.057520
    139 C48         4.6280    1.9840   -3.8030 c3        1 MOL     -0.066010
    140 C49         5.2970    0.8000   -3.2240 c3        1 MOL      0.077762
    141 H60         6.6620    3.1550   -1.7730 h1        1 MOL      0.077234
    142 H61         3.8000    3.3980   -2.4970 hc        1 MOL      0.010590
    143 H62         5.2050    3.9270   -3.4240 hc        1 MOL      0.010590
    144 H63         3.6060    1.6780   -4.0060 hc        1 MOL      0.039249
    145 H64         5.1050    2.2990   -4.7280 hc        1 MOL      0.039249
    146 H65         4.5400    0.0410   -3.0070 h1        1 MOL     -0.012934
    147 H66         6.0570    0.4100   -3.9030 h1        1 MOL     -0.012934
    148 N13         4.5350    2.0460    0.3690 n         1 MOL      0.073222
    149 C50         3.8980    2.2490    1.6630 c3        1 MOL     -0.386709
    150 C51         4.7990    1.7120    2.8290 c         1 MOL      0.571126
    151 O21         4.8200    2.1190    3.9630 o         1 MOL     -0.577428
    152 C52         2.4990    1.5400    1.6790 c3        1 MOL      0.259954
    153 C53         1.6320    2.0850    0.5140 c3        1 MOL     -0.116071
    154 C54         0.2330    1.4910    0.4230 c         1 MOL      0.640774
    155 O22        -0.5980    1.8160   -0.4600 o         1 MOL     -0.752863
    156 O23        -0.0830    0.6210    1.2280 o         1 MOL     -0.752863
    157 H67         4.4340    1.1310   -0.0400 hn        1 MOL      0.186814
    158 H68         3.6220    3.2880    1.8440 h1        1 MOL      0.166004
    159 H69         1.9950    1.8640    2.5930 hc        1 MOL     -0.056929
    160 H70         2.5880    0.4560    1.5770 hc        1 MOL     -0.056929
    161 H71         2.1360    1.7460   -0.3920 hc        1 MOL      0.036096
    162 H72         1.6000    3.1620    0.6610 hc        1 MOL      0.036096
    163 N14         5.6000    0.7630    2.4380 n         1 MOL     -0.107018
    164 C55         6.5370    0.0350    3.2790 c3        1 MOL     -0.260951
    165 H73         7.1900   -0.5740    2.6530 h1        1 MOL      0.094410
    166 H74         7.1390    0.7420    3.8500 h1        1 MOL      0.094410
    167 H75         5.9860   -0.6090    3.9640 h1        1 MOL      0.094410
    168 H76         5.5300    0.4690    1.4840 hn        1 MOL      0.044458
    169 Ca1        -2.3010   -0.0930   -0.0290 Ca        1 MOL      1.791107
    170 O24        -2.3250    0.2740    2.6310 oh        1 MOL     -0.746089
    171 H77        -2.3760    0.4120    3.5780 ho        1 MOL      0.370039
    172 H78        -1.4540    0.5880    2.3920 ho        1 MOL      0.370039
    173 O25        -5.1550   -0.0550    1.2020 oh        1 MOL     -0.746089
    174 H79        -5.8520   -0.3410    1.7850 ho        1 MOL      0.370039
    175 H80        -5.0190    0.8680    1.4160 ho        1 MOL      0.370039
@<TRIPOS>BOND
     1    1    2 1   
     2    1    4 1   
     3    1    5 1   
     4    1    6 1   
     5    2    3 2   
     6    2    7 1   
     7    7    8 1   
     8    7   15 1   
     9    8    9 1   
    10    8   11 1   
    11    8   16 1   
    12    9   10 2   
    13    9   19 1   
    14   11   12 1   
    15   11   17 1   
    16   11   18 1   
    17   12   13 1   
    18   12   14 1   
    19   19   20 1   
    20   19   24 1   
    21   20   21 1   
    22   20   23 1   
    23   20   25 1   
    24   21   22 2   
    25   21   29 1   
    26   23   26 1   
    27   23   27 1   
    28   23   28 1   
    29   29   30 1   
    30   29   37 1   
    31   30   31 1   
    32   30   33 1   
    33   30   38 1   
    34   31   32 2   
    35   31   41 1   
    36   33   34 1   
    37   33   39 1   
    38   33   40 1   
    39   34   35 1   
    40   34   36 1   
    41   41   42 1   
    42   41   45 1   
    43   42   43 1   
    44   42   46 1   
    45   42   47 1   
    46   43   44 2   
    47   43   48 1   
    48   48   49 1   
    49   48   56 1   
    50   49   50 1   
    51   49   52 1   
    52   49   57 1   
    53   50   51 2   
    54   50   62 1   
    55   52   53 1   
    56   52   58 1   
    57   52   59 1   
    58   53   54 1   
    59   53   55 2   
    60   54   60 1   
    61   54   61 1   
    62   62   63 1   
    63   62   66 1   
    64   63   64 1   
    65   63   67 1   
    66   63   68 1   
    67   64   65 2   
    68   64   69 1   
    69   69   70 1   
    70   69   76 1   
    71   70   71 1   
    72   70   73 1   
    73   70   77 1   
    74   71   72 2   
    75   71   83 1   
    76   73   74 1   
    77   73   75 1   
    78   73   78 1   
    79   74   80 1   
    80   74   81 1   
    81   74   82 1   
    82   75   79 1   
    83   83   84 1   
    84   83   91 1   
    85   84   85 1   
    86   84   87 1   
    87   84   92 1   
    88   85   86 2   
    89   85  102 1   
    90   87   88 1   
    91   87   89 1   
    92   87   93 1   
    93   88   90 1   
    94   88   94 1   
    95   88   95 1   
    96   89   96 1   
    97   89   97 1   
    98   89   98 1   
    99   90   99 1   
   100   90  100 1   
   101   90  101 1   
   102  102  103 1   
   103  102  110 1   
   104  103  104 1   
   105  103  106 1   
   106  103  111 1   
   107  104  105 2   
   108  104  114 1   
   109  106  107 1   
   110  106  112 1   
   111  106  113 1   
   112  107  108 1   
   113  107  109 1   
   114  114  115 1   
   115  114  125 1   
   116  115  116 1   
   117  115  118 1   
   118  115  126 1   
   119  116  117 2   
   120  116  134 1   
   121  118  119 1   
   122  118  127 1   
   123  118  128 1   
   124  119  120 ar  
   125  119  121 ar  
   126  120  122 ar  
   127  120  129 1   
   128  121  123 ar  
   129  121  130 1   
   130  122  124 ar  
   131  122  131 1   
   132  123  124 ar  
   133  123  132 1   
   134  124  133 1   
   135  134  135 1   
   136  134  140 1   
   137  135  136 1   
   138  135  138 1   
   139  135  141 1   
   140  136  137 2   
   141  136  148 1   
   142  138  139 1   
   143  138  142 1   
   144  138  143 1   
   145  139  140 1   
   146  139  144 1   
   147  139  145 1   
   148  140  146 1   
   149  140  147 1   
   150  148  149 1   
   151  148  157 1   
   152  149  150 1   
   153  149  152 1   
   154  149  158 1   
   155  150  151 2   
   156  150  163 1   
   157  152  153 1   
   158  152  159 1   
   159  152  160 1   
   160  153  154 1   
   161  153  161 1   
   162  153  162 1   
   163  154  155 1   
   164  154  156 1   
   165  163  164 1   
   166  163  168 1   
   167  164  165 1   
   168  164  166 1   
   169  164  167 1   
   170  170  171 1   
   171  170  172 1   
   172  173  174 1   
   173  173  175 1   
@<TRIPOS>SUBSTRUCTURE
     1 MOL         1 TEMP              0 ****  ****    0 ROOT
