@<TRIPOS>MOLECULE
MOL
  189   185     1     0     0
SMALL
resp


@<TRIPOS>ATOM
      1 C1          0.4440    2.8910    4.9970 c3        1 MOL     -0.390948
      2 C2         -0.2530    2.6410    3.6610 c         1 MOL      0.583222
      3 O1          0.3020    3.0460    2.6010 o         1 MOL     -0.609180
      4 H1          0.7760    3.9290    5.0440 hc        1 MOL      0.105774
      5 H2         -0.2520    2.6960    5.8130 hc        1 MOL      0.105774
      6 H3          1.3060    2.2300    5.0870 hc        1 MOL      0.105774
      7 N1         -1.4330    1.9890    3.6600 n         1 MOL     -0.579167
      8 C3         -2.2730    1.5980    2.4670 c3        1 MOL      0.273527
      9 C4         -2.9870    2.8380    1.8030 c         1 MOL      0.306220
     10 O2         -4.2170    2.7940    1.7950 o         1 MOL     -0.390847
     11 C5         -3.2120    0.4540    2.8360 c3        1 MOL     -0.241343
     12 C6         -3.9270   -0.1710    1.6390 c         1 MOL      0.756104
     13 O3         -3.3280   -0.3520    0.5620 o         1 MOL     -0.714980
     14 O4         -5.0560   -0.6940    1.7650 o         1 MOL     -0.714980
     15 H4         -1.6200    1.5270    4.5310 hn        1 MOL      0.328859
     16 H5         -1.5710    1.2260    1.7090 h1        1 MOL      0.069672
     17 H6         -3.9170    0.8560    3.5650 hc        1 MOL      0.052830
     18 H7         -2.7360   -0.4330    3.2550 hc        1 MOL      0.052830
     19 N2         -2.2920    3.9230    1.4130 n         1 MOL     -0.274822
     20 C7         -2.9120    5.1760    0.9960 c3        1 MOL     -0.037458
     21 C8         -3.8900    5.1210   -0.1350 c         1 MOL      0.490874
     22 O5         -4.8090    5.9690   -0.2980 o         1 MOL     -0.567405
     23 C9         -1.7540    6.1470    0.5430 c3        1 MOL     -0.197661
     24 C10        -0.9650    6.5960    1.7630 c3        1 MOL      0.287178
     25 C11         0.2710    7.4410    1.3720 c3        1 MOL     -0.159870
     26 C12         0.8790    8.0610    2.6130 c3        1 MOL     -0.134743
     27 N3          1.6200    7.1410    3.4610 n4        1 MOL     -0.190135
     28 H8         -1.2820    3.9140    1.4770 hn        1 MOL      0.315906
     29 H9         -3.3950    5.7270    1.8020 h1        1 MOL      0.085088
     30 H10        -2.2990    6.9530    0.0570 hc        1 MOL      0.059042
     31 H11        -1.1290    5.7090   -0.2390 hc        1 MOL      0.059042
     32 H12        -0.7440    5.7120    2.3580 hc        1 MOL     -0.053869
     33 H13        -1.6310    7.1570    2.4190 hc        1 MOL     -0.053869
     34 H14        -0.0530    8.2800    0.7500 hc        1 MOL      0.091196
     35 H15         1.0030    6.8540    0.8190 hc        1 MOL      0.091196
     36 H16         0.1600    8.5010    3.3010 hx        1 MOL      0.120987
     37 H17         1.6310    8.7660    2.2640 hx        1 MOL      0.120987
     38 H18         2.3250    6.5570    3.0520 hn        1 MOL      0.290159
     39 H19         2.0600    7.6000    4.2540 hn        1 MOL      0.290159
     40 H20         1.0040    6.4280    3.8240 hn        1 MOL      0.290159
     41 N4         -3.7930    4.0190   -0.9210 n         1 MOL     -0.367016
     42 C13        -4.6940    3.6400   -2.0640 c3        1 MOL      0.174388
     43 C14        -5.7440    2.5220   -1.8010 c         1 MOL      0.477552
     44 O6         -6.3270    2.0610   -2.6970 o         1 MOL     -0.506233
     45 C15        -3.8840    3.4380   -3.3840 c3        1 MOL     -0.456279
     46 C16        -2.6950    2.4930   -3.2350 c         1 MOL      0.962383
     47 O7         -2.6390    1.6120   -2.3230 o         1 MOL     -0.780462
     48 O8         -1.6630    2.5980   -3.9470 o         1 MOL     -0.780462
     49 H21        -2.9680    3.4610   -0.7270 hn        1 MOL      0.261822
     50 H22        -5.3490    4.4950   -2.2230 h1        1 MOL      0.079664
     51 H23        -3.4910    4.4370   -3.6050 hc        1 MOL      0.101309
     52 H24        -4.5640    3.1160   -4.1700 hc        1 MOL      0.101309
     53 N5         -5.9690    2.1230   -0.5300 n         1 MOL     -0.316537
     54 C17        -7.2050    1.4320   -0.0820 c3        1 MOL     -0.167348
     55 C18        -7.4250    0.0210   -0.6400 c         1 MOL      0.519254
     56 O9         -8.5610   -0.4050   -0.4600 o         1 MOL     -0.586120
     57 H25        -5.3360    2.3290    0.2350 hn        1 MOL      0.166628
     58 H26        -8.0450    2.0560   -0.3920 h1        1 MOL      0.114812
     59 H27        -7.2470    1.3410    0.9980 h1        1 MOL      0.114812
     60 N6         -6.4300   -0.7210   -1.1500 n         1 MOL     -0.180686
     61 C19        -6.6580   -2.0350   -1.8340 c3        1 MOL     -0.035284
     62 C20        -6.8140   -3.2360   -0.8310 c         1 MOL      0.421908
     63 O10        -7.4140   -4.2290   -1.1670 o         1 MOL     -0.519059
     64 C21        -5.6120   -2.2720   -2.9640 c3        1 MOL     -0.153720
     65 C22        -4.1990   -1.9340   -2.5280 c         1 MOL      0.659047
     66 O11        -3.5680   -1.0760   -3.1990 o         1 MOL     -0.705053
     67 O12        -3.7580   -2.3730   -1.4800 o         1 MOL     -0.705053
     68 H28        -5.4630   -0.4970   -0.9310 hn        1 MOL      0.196199
     69 H29        -7.5690   -1.9850   -2.4340 h1        1 MOL      0.102322
     70 H30        -5.9190   -1.6340   -3.7940 hc        1 MOL      0.054147
     71 H31        -5.7070   -3.2870   -3.3400 hc        1 MOL      0.054147
     72 N7         -6.2300   -2.9850    0.4010 n         1 MOL     -0.259464
     73 C23        -6.3060   -3.9790    1.3990 c3        1 MOL      0.029267
     74 C24        -4.9030   -4.5980    1.6300 c         1 MOL      0.456155
     75 O13        -4.7690   -5.6290    2.2910 o         1 MOL     -0.577806
     76 H32        -5.7970   -2.0840    0.5000 hn        1 MOL      0.274506
     77 H33        -6.9530   -4.7990    1.1070 h1        1 MOL      0.056086
     78 H34        -6.7300   -3.6840    2.3640 h1        1 MOL      0.056086
     79 N8         -3.8220   -4.0710    1.0070 n         1 MOL     -0.148379
     80 C25        -2.4640   -4.6540    1.0190 c3        1 MOL     -0.398784
     81 C26        -1.2970   -3.6210    1.0120 c         1 MOL      0.728243
     82 O14        -1.1930   -2.9290   -0.0240 o         1 MOL     -0.612572
     83 C27        -2.2590   -5.6300   -0.1970 c3        1 MOL      0.654837
     84 C28        -2.7880   -7.0160   -0.1380 c3        1 MOL     -0.458068
     85 O15        -2.7700   -5.0550   -1.3970 oh        1 MOL     -0.723116
     86 H35        -3.9360   -3.2990    0.3650 hn        1 MOL      0.149945
     87 H36        -2.3000   -5.2770    1.8990 h1        1 MOL      0.134952
     88 H37        -1.1880   -5.7580   -0.3270 h1        1 MOL     -0.065730
     89 H38        -2.9640   -4.1240   -1.3290 ho        1 MOL      0.471846
     90 H39        -2.4560   -7.5370   -1.0310 hc        1 MOL      0.113791
     91 H40        -2.3270   -7.4250    0.7530 hc        1 MOL      0.113791
     92 H41        -3.8760   -7.0110   -0.0690 hc        1 MOL      0.113791
     93 N9         -0.3110   -3.6240    1.9330 n         1 MOL     -0.664370
     94 C29         0.9360   -2.8540    2.0250 c3        1 MOL     -0.009707
     95 C30         2.0800   -3.4330    1.2330 c         1 MOL      0.530565
     96 O16         2.6500   -4.5470    1.5670 o         1 MOL     -0.576578
     97 C31         1.3810   -2.5760    3.5040 c3        1 MOL      0.469126
     98 C32         0.1950   -2.4520    4.4600 c3        1 MOL      0.272856
     99 C33         2.3190   -1.3620    3.5710 c3        1 MOL     -0.665390
    100 C34         0.7400   -2.4890    5.9900 c3        1 MOL     -0.410619
    101 H42        -0.4980   -4.3200    2.6450 hn        1 MOL      0.296129
    102 H43         0.6690   -1.8990    1.5630 h1        1 MOL      0.090022
    103 H44         1.9440   -3.4500    3.8490 hc        1 MOL     -0.073462
    104 H45        -0.2420   -3.4420    4.4170 hc        1 MOL     -0.064515
    105 H46        -0.4580   -1.6160    4.2210 hc        1 MOL     -0.064515
    106 H47         3.1670   -1.3720    2.8920 hc        1 MOL      0.118467
    107 H48         1.7530   -0.4850    3.2420 hc        1 MOL      0.118467
    108 H49         2.6150   -1.2970    4.6150 hc        1 MOL      0.118467
    109 H50         0.8670   -1.4630    6.3290 hc        1 MOL      0.097116
    110 H51        -0.0980   -3.0000    6.4670 hc        1 MOL      0.097116
    111 H52         1.6270   -3.1120    6.0470 hc        1 MOL      0.097116
    112 N10         2.5200   -2.6660    0.2410 n         1 MOL     -0.124751
    113 C35         3.6840   -3.0620   -0.5610 c3        1 MOL     -0.095228
    114 C36         5.0150   -2.8230    0.1620 c         1 MOL      0.366191
    115 O17         5.0440   -2.0390    1.0660 o         1 MOL     -0.374198
    116 C37         3.6110   -2.2910   -1.9130 c3        1 MOL      0.031054
    117 C38         2.5430   -2.9080   -2.8010 c3        1 MOL     -0.312887
    118 O18         3.3040   -0.9560   -1.5790 oh        1 MOL     -0.326592
    119 H53         2.1230   -1.7450    0.1450 hn        1 MOL      0.132643
    120 H54         3.7080   -4.1450   -0.6770 h1        1 MOL      0.088709
    121 H55         4.5380   -2.3730   -2.4730 h1        1 MOL      0.078430
    122 H56         2.3770   -0.8330   -1.7760 ho        1 MOL      0.267787
    123 H57         1.5890   -2.8230   -2.2780 hc        1 MOL      0.110039
    124 H58         2.5810   -2.4090   -3.7650 hc        1 MOL      0.110039
    125 H59         2.7200   -3.9500   -3.0400 hc        1 MOL      0.110039
    126 N11         6.1500   -3.3240   -0.2800 n         1 MOL     -0.278526
    127 C39         7.4880   -2.7360    0.0010 c3        1 MOL     -0.242485
    128 C40         7.6810   -1.2530   -0.3400 c         1 MOL      0.510548
    129 O19         8.4030   -0.5660    0.2910 o         1 MOL     -0.492180
    130 C41         8.5490   -3.4660   -0.8020 c3        1 MOL      0.240381
    131 C42         8.6470   -5.0530   -0.6240 c3        1 MOL     -0.295625
    132 O20         8.3270   -3.2360   -2.1980 oh        1 MOL     -0.654725
    133 H60         6.1050   -3.9520   -1.0700 hn        1 MOL      0.283634
    134 H61         7.7890   -2.9460    1.0270 h1        1 MOL      0.169609
    135 H62         9.5160   -2.9800   -0.6520 h1        1 MOL      0.064247
    136 H63         9.0250   -3.6160   -2.7390 ho        1 MOL      0.424186
    137 H64         9.1030   -5.3310    0.3280 hc        1 MOL      0.091081
    138 H65         7.6360   -5.4600   -0.7670 hc        1 MOL      0.091081
    139 H66         9.2670   -5.4770   -1.4090 hc        1 MOL      0.091081
    140 N12         6.8810   -0.7020   -1.2710 n         1 MOL     -0.238516
    141 C43         6.8320    0.6940   -1.6340 c3        1 MOL      0.084668
    142 C44         6.2310    1.4700   -0.4060 c         1 MOL      0.242819
    143 O21         6.8550    2.4350    0.0900 o         1 MOL     -0.504179
    144 C45         6.3370    1.0240   -3.0290 c3        1 MOL      0.027378
    145 C46         6.2740    2.5110   -3.3740 c3        1 MOL     -0.166416
    146 C47         5.5390    2.7970   -4.7130 c3        1 MOL      0.157183
    147 C48         5.4560    4.3190   -5.0750 c3        1 MOL     -0.198438
    148 N13         4.3210    4.4590   -5.9680 n4        1 MOL     -0.205809
    149 H67         6.4050   -1.3130   -1.9080 hn        1 MOL      0.176204
    150 H68         7.8240    1.1430   -1.6930 h1        1 MOL      0.065325
    151 H69         5.3610    0.5540   -3.1660 hc        1 MOL      0.009003
    152 H70         7.0590    0.4720   -3.6380 hc        1 MOL      0.009003
    153 H71         7.2290    3.0270   -3.3630 hc        1 MOL      0.063329
    154 H72         5.7220    3.0180   -2.5820 hc        1 MOL      0.063329
    155 H73         4.5790    2.2780   -4.7300 hc        1 MOL     -0.000797
    156 H74         6.0490    2.2520   -5.5020 hc        1 MOL     -0.000797
    157 H75         6.3930    4.5530   -5.5660 hx        1 MOL      0.146612
    158 H76         5.1110    4.8860   -4.1980 hx        1 MOL      0.146612
    159 H77         4.4830    5.1560   -6.6740 hn        1 MOL      0.291747
    160 H78         4.0850    3.5930   -6.4360 hn        1 MOL      0.291747
    161 H79         3.5740    4.9040   -5.4660 hn        1 MOL      0.291747
    162 N14         5.0510    1.0770    0.0640 n         1 MOL      0.007931
    163 C49         4.2160    1.7080    1.0900 c3        1 MOL     -0.125714
    164 C50         4.7100    1.5580    2.5860 c         1 MOL      0.338216
    165 O22         4.4110    2.5500    3.3280 o         1 MOL     -0.550776
    166 C51         2.8120    1.0440    1.0050 c3        1 MOL      0.056539
    167 C52         2.0590    1.5410   -0.1760 c3        1 MOL     -0.150339
    168 C53         0.6600    0.9290   -0.2810 c         1 MOL      0.797606
    169 O23        -0.3650    1.6170   -0.3680 o         1 MOL     -0.804833
    170 O24         0.5410   -0.2860   -0.2440 o         1 MOL     -0.804833
    171 H80         4.5700    0.3070   -0.3980 hn        1 MOL      0.044709
    172 H81         3.9810    2.7620    0.9720 h1        1 MOL      0.100601
    173 H82         2.2430    1.2560    1.9160 hc        1 MOL      0.120381
    174 H83         2.9080   -0.0240    0.8120 hc        1 MOL      0.120381
    175 H84         2.5640    1.1910   -1.0780 hc        1 MOL     -0.027185
    176 H85         2.0450    2.6370   -0.1800 hc        1 MOL     -0.027185
    177 N15         5.6420    0.6260    2.8920 n         1 MOL      0.015349
    178 C54         6.4910    0.7300    4.0700 c3        1 MOL     -0.386553
    179 H86         6.4530    1.7500    4.4540 h1        1 MOL      0.132143
    180 H87         6.1360    0.0400    4.8350 h1        1 MOL      0.132143
    181 H88         7.5180    0.4820    3.8020 h1        1 MOL      0.132143
    182 H89         5.8510   -0.1960    2.3410 hn        1 MOL      0.176391
    183 Ca1        -1.6710   -0.6170   -1.4950 Ca        1 MOL      1.773377
    184 O25        -1.0570   -2.8200   -2.9800 oh        1 MOL     -0.810788
    185 H90        -0.8930   -2.7720   -3.9230 ho        1 MOL      0.381601
    186 H91        -1.5850   -3.6020   -2.8680 ho        1 MOL      0.381601
    187 O26        -0.3510    0.3090   -3.7750 oh        1 MOL     -0.810788
    188 H92         0.5860    0.4500   -3.9570 ho        1 MOL      0.381601
    189 H93        -0.7200    1.1890   -3.7670 ho        1 MOL      0.381601
@<TRIPOS>BOND
     1    1    2 1   
     2    1    4 1   
     3    1    5 1   
     4    1    6 1   
     5    2    3 2   
     6    2    7 1   
     7    7    8 1   
     8    7   15 1   
     9    8    9 1   
    10    8   11 1   
    11    8   16 1   
    12    9   10 2   
    13    9   19 1   
    14   11   12 1   
    15   11   17 1   
    16   11   18 1   
    17   12   13 1   
    18   12   14 1   
    19   19   20 1   
    20   19   28 1   
    21   20   21 1   
    22   20   23 1   
    23   20   29 1   
    24   21   22 2   
    25   21   41 1   
    26   23   24 1   
    27   23   30 1   
    28   23   31 1   
    29   24   25 1   
    30   24   32 1   
    31   24   33 1   
    32   25   26 1   
    33   25   34 1   
    34   25   35 1   
    35   26   27 1   
    36   26   36 1   
    37   26   37 1   
    38   27   38 1   
    39   27   39 1   
    40   27   40 1   
    41   41   42 1   
    42   41   49 1   
    43   42   43 1   
    44   42   45 1   
    45   42   50 1   
    46   43   44 2   
    47   43   53 1   
    48   45   46 1   
    49   45   51 1   
    50   45   52 1   
    51   46   47 1   
    52   46   48 1   
    53   53   54 1   
    54   53   57 1   
    55   54   55 1   
    56   54   58 1   
    57   54   59 1   
    58   55   56 2   
    59   55   60 1   
    60   60   61 1   
    61   60   68 1   
    62   61   62 1   
    63   61   64 1   
    64   61   69 1   
    65   62   63 2   
    66   62   72 1   
    67   64   65 1   
    68   64   70 1   
    69   64   71 1   
    70   65   66 1   
    71   65   67 1   
    72   72   73 1   
    73   72   76 1   
    74   73   74 1   
    75   73   77 1   
    76   73   78 1   
    77   74   75 2   
    78   74   79 1   
    79   79   80 1   
    80   79   86 1   
    81   80   81 1   
    82   80   83 1   
    83   80   87 1   
    84   81   82 2   
    85   81   93 1   
    86   83   84 1   
    87   83   85 1   
    88   83   88 1   
    89   84   90 1   
    90   84   91 1   
    91   84   92 1   
    92   85   89 1   
    93   93   94 1   
    94   93  101 1   
    95   94   95 1   
    96   94   97 1   
    97   94  102 1   
    98   95   96 2   
    99   95  112 1   
   100   97   98 1   
   101   97   99 1   
   102   97  103 1   
   103   98  100 1   
   104   98  104 1   
   105   98  105 1   
   106   99  106 1   
   107   99  107 1   
   108   99  108 1   
   109  100  109 1   
   110  100  110 1   
   111  100  111 1   
   112  112  113 1   
   113  112  119 1   
   114  113  114 1   
   115  113  116 1   
   116  113  120 1   
   117  114  115 2   
   118  114  126 1   
   119  116  117 1   
   120  116  118 1   
   121  116  121 1   
   122  117  123 1   
   123  117  124 1   
   124  117  125 1   
   125  118  122 1   
   126  126  127 1   
   127  126  133 1   
   128  127  128 1   
   129  127  130 1   
   130  127  134 1   
   131  128  129 2   
   132  128  140 1   
   133  130  131 1   
   134  130  132 1   
   135  130  135 1   
   136  131  137 1   
   137  131  138 1   
   138  131  139 1   
   139  132  136 1   
   140  140  141 1   
   141  140  149 1   
   142  141  142 1   
   143  141  144 1   
   144  141  150 1   
   145  142  143 2   
   146  142  162 1   
   147  144  145 1   
   148  144  151 1   
   149  144  152 1   
   150  145  146 1   
   151  145  153 1   
   152  145  154 1   
   153  146  147 1   
   154  146  155 1   
   155  146  156 1   
   156  147  148 1   
   157  147  157 1   
   158  147  158 1   
   159  148  159 1   
   160  148  160 1   
   161  148  161 1   
   162  162  163 1   
   163  162  171 1   
   164  163  164 1   
   165  163  166 1   
   166  163  172 1   
   167  164  165 2   
   168  164  177 1   
   169  166  167 1   
   170  166  173 1   
   171  166  174 1   
   172  167  168 1   
   173  167  175 1   
   174  167  176 1   
   175  168  169 1   
   176  168  170 1   
   177  177  178 1   
   178  177  182 1   
   179  178  179 1   
   180  178  180 1   
   181  178  181 1   
   182  184  185 1   
   183  184  186 1   
   184  187  188 1   
   185  187  189 1   
@<TRIPOS>SUBSTRUCTURE
     1 MOL         1 TEMP              0 ****  ****    0 ROOT
