@<TRIPOS>MOLECULE
MOL
  189   185     1     0     0
SMALL
resp


@<TRIPOS>ATOM
      1 C1          0.1760   -4.9630    5.5000 c3        1 MOL     -0.315265
      2 C2          0.6920   -4.2460    4.2600 c         1 MOL      0.716798
      3 O1          0.8790   -3.0050    4.3160 o         1 MOL     -0.643413
      4 H1          0.1070   -4.2550    6.3260 hc        1 MOL      0.082005
      5 H2         -0.8110   -5.3780    5.2960 hc        1 MOL      0.082005
      6 H3          0.8610   -5.7670    5.7670 hc        1 MOL      0.082005
      7 N1          1.1100   -4.9240    3.1540 n         1 MOL     -0.581624
      8 C3          1.7690   -4.3420    1.9810 c3        1 MOL      0.296090
      9 C4          1.5800   -5.2060    0.7290 c         1 MOL      0.369557
     10 O2          1.5850   -6.4510    0.7420 o         1 MOL     -0.584249
     11 C5          3.2780   -4.2240    2.3590 c3        1 MOL     -0.381759
     12 C6          4.1380   -3.6080    1.2030 c         1 MOL      0.745676
     13 O3          5.3280   -3.9290    1.1440 o         1 MOL     -0.665408
     14 O4          3.7540   -2.5860    0.5750 o         1 MOL     -0.665408
     15 H4          0.9470   -5.9220    3.1240 hn        1 MOL      0.290523
     16 H5          1.2820   -3.3920    1.7520 h1        1 MOL      0.017382
     17 H6          3.6140   -5.2000    2.7270 hc        1 MOL      0.095497
     18 H7          3.3930   -3.5450    3.2060 hc        1 MOL      0.095497
     19 N2          1.3810   -4.5190   -0.3680 n         1 MOL      0.118698
     20 C7          1.1960   -5.2380   -1.6940 c3        1 MOL     -0.190057
     21 C8          2.2420   -4.8190   -2.7180 c         1 MOL      0.473774
     22 O5          2.3040   -5.4290   -3.7920 o         1 MOL     -0.566379
     23 C9         -0.2370   -5.0200   -2.2580 c3        1 MOL      0.135562
     24 C10        -0.3680   -3.5040   -2.7500 c3        1 MOL      0.129826
     25 C11        -1.3980   -5.3630   -1.2120 c3        1 MOL     -0.386868
     26 C12        -1.8100   -3.0960   -3.1630 c3        1 MOL     -0.436248
     27 H8          1.2310   -3.5250   -0.3550 hn        1 MOL     -0.024335
     28 H9          1.3700   -6.3140   -1.5910 h1        1 MOL      0.115381
     29 H10        -0.3680   -5.6630   -3.1300 hc        1 MOL     -0.000990
     30 H11         0.2890   -3.3790   -3.6040 hc        1 MOL      0.021266
     31 H12         0.0780   -2.8780   -1.9850 hc        1 MOL      0.021266
     32 H13        -2.3970   -5.4430   -1.6300 hc        1 MOL      0.096484
     33 H14        -1.1490   -6.2070   -0.5660 hc        1 MOL      0.096484
     34 H15        -1.3760   -4.5720   -0.4600 hc        1 MOL      0.096484
     35 H16        -1.7110   -2.1150   -3.6300 hc        1 MOL      0.106151
     36 H17        -2.2650   -3.8120   -3.8540 hc        1 MOL      0.106151
     37 H18        -2.3590   -3.0740   -2.2210 hc        1 MOL      0.106151
     38 N3          3.0210   -3.7510   -2.4560 n         1 MOL     -0.221852
     39 C13         3.7560   -3.1070   -3.5250 c3        1 MOL     -0.039186
     40 C14         5.1340   -2.6350   -3.1260 c         1 MOL      0.439197
     41 O6          5.9180   -2.4230   -4.0620 o         1 MOL     -0.565091
     42 C15         3.0090   -1.9780   -4.1810 c3        1 MOL     -0.107708
     43 C16         2.4340   -0.9490   -3.1950 c         1 MOL      0.731285
     44 O7          2.7640   -1.0170   -1.9890 o         1 MOL     -0.711353
     45 O8          1.6880   -0.0580   -3.6740 o         1 MOL     -0.711353
     46 H19         3.0190   -3.2720   -1.5690 hn        1 MOL      0.027987
     47 H20         4.0030   -3.8630   -4.2660 h1        1 MOL      0.092918
     48 H21         2.1690   -2.3710   -4.7500 hc        1 MOL      0.039393
     49 H22         3.6110   -1.5110   -4.9570 hc        1 MOL      0.039393
     50 N4          5.4730   -2.6240   -1.8450 n         1 MOL     -0.061021
     51 C17         6.9090   -2.5150   -1.3520 c3        1 MOL     -0.153262
     52 C18         7.6270   -1.1740   -1.5860 c         1 MOL      0.455817
     53 O9          8.8530   -1.0810   -1.7320 o         1 MOL     -0.551987
     54 H23         4.7800   -2.7810   -1.1340 hn        1 MOL      0.075395
     55 H24         7.4780   -3.2830   -1.8760 h1        1 MOL      0.087852
     56 H25         6.8920   -2.8210   -0.3030 h1        1 MOL      0.087852
     57 N5          6.8380   -0.0500   -1.5470 n         1 MOL     -0.219251
     58 C19         7.1970    1.2690   -1.8550 c3        1 MOL      0.021063
     59 C20         7.7420    2.0520   -0.6540 c         1 MOL      0.483848
     60 O10         8.7790    2.6490   -0.7870 o         1 MOL     -0.549278
     61 C21         6.0530    1.9940   -2.5260 c3        1 MOL     -0.270476
     62 C22         4.6580    1.9840   -1.8720 c         1 MOL      0.725265
     63 O11         4.5830    1.2160   -0.8990 o         1 MOL     -0.661556
     64 O12         3.7780    2.6780   -2.3170 o         1 MOL     -0.661556
     65 H26         5.8430   -0.1760   -1.3990 hn        1 MOL      0.173616
     66 H27         8.0090    1.1700   -2.5730 h1        1 MOL      0.073764
     67 H28         5.9560    1.6110   -3.5460 hc        1 MOL      0.061707
     68 H29         6.3160    3.0480   -2.6280 hc        1 MOL      0.061707
     69 N6          7.0580    1.9930    0.5180 n         1 MOL     -0.276411
     70 C23         7.0640    2.9300    1.6320 c3        1 MOL     -0.179435
     71 C24         5.8450    3.8030    1.7900 c         1 MOL      0.608818
     72 O13         5.9810    4.8340    2.4510 o         1 MOL     -0.623820
     73 H30         6.2480    1.3860    0.5130 hn        1 MOL      0.169073
     74 H31         7.9620    3.5470    1.5710 h1        1 MOL      0.098137
     75 H32         7.1150    2.2810    2.5060 h1        1 MOL      0.098137
     76 N7          4.7430    3.4240    1.2090 n         1 MOL     -0.316023
     77 C25         3.5210    4.1560    1.4820 c3        1 MOL      0.032051
     78 C26         2.3840    3.1300    1.6690 c         1 MOL      0.406018
     79 O14         2.4990    1.9120    1.5330 o         1 MOL     -0.416170
     80 C27         3.0530    5.0810    0.3480 c3        1 MOL      0.155813
     81 C28         3.8580    6.2970    0.1080 c3        1 MOL     -0.296404
     82 C29         3.1040    7.3250   -0.6190 c         1 MOL      0.647063
     83 N8          2.8250    7.2440   -1.9010 n         1 MOL     -0.726934
     84 O15         2.6300    8.2440   -0.0030 o         1 MOL     -0.578426
     85 H33         4.6580    2.5300    0.7590 hn        1 MOL      0.277046
     86 H34         3.5320    4.7150    2.4230 h1        1 MOL      0.068991
     87 H35         2.0400    5.4830    0.4930 hc        1 MOL     -0.001585
     88 H36         2.9720    4.4310   -0.5240 hc        1 MOL     -0.001585
     89 H37         4.7010    6.0490   -0.5430 hc        1 MOL      0.070550
     90 H38         4.3460    6.6150    1.0340 hc        1 MOL      0.070550
     91 H39         3.2670    6.4980   -2.4190 hn        1 MOL      0.341345
     92 H40         2.4270    8.0030   -2.4270 hn        1 MOL      0.341345
     93 N9          1.2340    3.5970    2.1500 n         1 MOL     -0.445713
     94 C30        -0.0100    2.8320    2.4870 c3        1 MOL      0.033643
     95 C31        -1.0310    3.2310    1.4550 c         1 MOL      0.482496
     96 O16        -1.4000    4.4040    1.3480 o         1 MOL     -0.556248
     97 C32        -0.4580    3.1230    3.9670 c3        1 MOL      0.361090
     98 C33        -1.8220    2.4720    4.2670 c3        1 MOL     -0.210075
     99 C34         0.5910    2.6800    4.9800 c3        1 MOL     -0.210075
    100 H41         1.1910    4.5770    2.4030 hn        1 MOL      0.251630
    101 H42         0.3410    1.8040    2.5250 h1        1 MOL      0.061936
    102 H43        -0.7190    4.1750    4.0490 hc        1 MOL     -0.066702
    103 H44        -2.0580    2.6520    5.3190 hc        1 MOL      0.029496
    104 H45        -2.5870    2.9290    3.6330 hc        1 MOL      0.029496
    105 H46        -1.8790    1.3890    4.1450 hc        1 MOL      0.029496
    106 H47         0.2180    2.9060    5.9820 hc        1 MOL      0.029496
    107 H48         0.7060    1.5930    4.9000 hc        1 MOL      0.029496
    108 H49         1.5090    3.2190    4.7940 hc        1 MOL      0.029496
    109 N10        -1.5170    2.2280    0.6860 n         1 MOL     -0.285538
    110 C35        -2.7000    2.3460   -0.1500 c3        1 MOL      0.053687
    111 C36        -4.0100    2.1500    0.5970 c         1 MOL      0.167410
    112 O17        -3.9900    1.4740    1.6420 o         1 MOL     -0.240444
    113 C37        -2.6480    1.2140   -1.2570 c3        1 MOL     -0.151717
    114 C38        -3.7290    1.2850   -2.2450 c         1 MOL      0.714438
    115 N11        -3.9350    2.4240   -2.9330 n         1 MOL     -0.759426
    116 O18        -4.4650    0.3460   -2.4610 o         1 MOL     -0.596893
    117 H50        -1.2090    1.2930    0.9040 hn        1 MOL      0.198627
    118 H51        -2.6340    3.3040   -0.6770 h1        1 MOL      0.062418
    119 H52        -2.8000    0.2500   -0.7810 hc        1 MOL      0.077249
    120 H53        -1.6780    1.2880   -1.7460 hc        1 MOL      0.077249
    121 H54        -3.3630    3.2260   -2.7110 hn        1 MOL      0.321794
    122 H55        -4.8090    2.5790   -3.4220 hn        1 MOL      0.321794
    123 N12        -5.1180    2.6230    0.1190 n         1 MOL     -0.153770
    124 C39        -6.4030    2.2980    0.6550 c3        1 MOL      0.161655
    125 C40        -6.6560    0.8030    0.9010 c         1 MOL      0.352818
    126 O19        -7.1620    0.4910    1.9680 o         1 MOL     -0.522585
    127 C41        -7.4590    3.0580   -0.1820 c3        1 MOL     -0.365986
    128 C42        -7.4080    2.9690   -1.7120 ca        1 MOL      0.226567
    129 C43        -7.2040    4.1720   -2.4210 ca        1 MOL     -0.254821
    130 C44        -7.5820    1.7370   -2.3420 ca        1 MOL     -0.254821
    131 C45        -7.1210    4.1000   -3.8050 ca        1 MOL     -0.208208
    132 C46        -7.6130    1.7150   -3.7400 ca        1 MOL     -0.208208
    133 C47        -7.3720    2.9110   -4.5190 ca        1 MOL      0.344880
    134 O20        -7.3340    2.9410   -5.8820 oh        1 MOL     -0.585193
    135 H56        -5.0760    3.2380   -0.6760 hn        1 MOL      0.141134
    136 H57        -6.3700    2.7250    1.6600 h1        1 MOL      0.026367
    137 H58        -7.4510    4.1220    0.0410 hc        1 MOL      0.103753
    138 H59        -8.3840    2.6110    0.1860 hc        1 MOL      0.103753
    139 H60        -7.1430    5.0860   -1.8420 ha        1 MOL      0.137187
    140 H61        -7.9300    0.8640   -1.8150 ha        1 MOL      0.137187
    141 H62        -6.8180    4.9690   -4.3610 ha        1 MOL      0.124073
    142 H63        -7.8440    0.8140   -4.2780 ha        1 MOL      0.124073
    143 H64        -7.3590    2.0610   -6.2770 ho        1 MOL      0.429143
    144 N13        -6.2980   -0.0890   -0.0280 n         1 MOL     -0.040804
    145 C48        -6.4620   -1.5100    0.2440 c3        1 MOL     -0.492664
    146 C49        -5.6220   -2.1150    1.3960 c         1 MOL      0.674216
    147 O21        -5.9260   -3.1830    1.8900 o         1 MOL     -0.540546
    148 C50        -6.1630   -2.4010   -0.9770 c3        1 MOL     -0.130323
    149 C51        -7.1230   -2.1280   -2.1540 c3        1 MOL      0.032703
    150 C52        -8.5660   -2.2690   -1.6600 c         1 MOL      0.658985
    151 O22        -9.3200   -1.3430   -1.9120 o         1 MOL     -0.708047
    152 O23        -8.9620   -3.3790   -1.1860 o         1 MOL     -0.708047
    153 H65        -5.8930    0.1220   -0.9320 hn        1 MOL      0.465819
    154 H66        -7.4610   -1.7250    0.6120 h1        1 MOL      0.202412
    155 H67        -6.3060   -3.4420   -0.6860 hc        1 MOL      0.060736
    156 H68        -5.1140   -2.2280   -1.2010 hc        1 MOL      0.060736
    157 H69        -6.9710   -2.8930   -2.9120 hc        1 MOL     -0.038941
    158 H70        -6.8660   -1.2010   -2.6580 hc        1 MOL     -0.038941
    159 N14        -4.6320   -1.3080    1.7970 n         1 MOL     -0.286824
    160 C53        -3.6210   -1.7730    2.7720 c3        1 MOL     -0.078804
    161 C54        -4.0250   -1.3510    4.1710 c         1 MOL      0.438065
    162 O24        -4.0120   -2.1410    5.1270 o         1 MOL     -0.537482
    163 C55        -2.2520   -1.2780    2.3570 c3        1 MOL      0.024608
    164 C56        -1.6150   -1.9500    1.1110 c3        1 MOL      0.117433
    165 C57        -0.2790   -1.3240    0.6970 c         1 MOL      0.803126
    166 O25         0.5380   -2.0030    0.1340 o         1 MOL     -0.726197
    167 O26         0.0550   -0.1920    1.0980 o         1 MOL     -0.726197
    168 H71        -4.3970   -0.4470    1.3340 hn        1 MOL      0.033846
    169 H72        -3.4480   -2.8490    2.7380 h1        1 MOL      0.076277
    170 H73        -1.5670   -1.4650    3.1950 hc        1 MOL     -0.006072
    171 H74        -2.1840   -0.1960    2.2450 hc        1 MOL     -0.006072
    172 H75        -2.3290   -1.7180    0.3230 hc        1 MOL     -0.059739
    173 H76        -1.3860   -3.0160    1.0820 hc        1 MOL     -0.059739
    174 N15        -4.3900   -0.0330    4.2850 n         1 MOL     -0.012907
    175 C58        -4.7020    0.6460    5.5220 c3        1 MOL     -0.256808
    176 H77        -3.7890    0.7830    6.1010 h1        1 MOL      0.084405
    177 H78        -5.1430    1.6190    5.3030 h1        1 MOL      0.084405
    178 H79        -5.4100    0.0480    6.0970 h1        1 MOL      0.084405
    179 H80        -4.4980    0.4830    3.4220 hn        1 MOL      0.080277
    180 Ca1         2.5640   -0.3390    0.3790 Ca        1 MOL      1.703118
    181 O27         2.2650   -1.0080    2.9120 oh        1 MOL     -0.928864
    182 H81         2.6750   -0.8880    3.7630 ho        1 MOL      0.440266
    183 H82         1.4300   -1.4310    3.1050 ho        1 MOL      0.440266
    184 O28         4.9010    0.3690    2.3290 oh        1 MOL     -0.928864
    185 H83         5.5370   -0.3520    2.3890 ho        1 MOL      0.440266
    186 H84         4.3750    0.2880    3.1200 ho        1 MOL      0.440266
    187 O29         1.4880    1.4510   -1.3790 oh        1 MOL     -0.928864
    188 H85         1.5140    0.8140   -2.1020 ho        1 MOL      0.440266
    189 H86         2.2480    2.0080   -1.5190 ho        1 MOL      0.440266
@<TRIPOS>BOND
     1    1    2 1   
     2    1    4 1   
     3    1    5 1   
     4    1    6 1   
     5    2    3 2   
     6    2    7 1   
     7    7    8 1   
     8    7   15 1   
     9    8    9 1   
    10    8   11 1   
    11    8   16 1   
    12    9   10 2   
    13    9   19 1   
    14   11   12 1   
    15   11   17 1   
    16   11   18 1   
    17   12   13 1   
    18   12   14 1   
    19   19   20 1   
    20   19   27 1   
    21   20   21 1   
    22   20   23 1   
    23   20   28 1   
    24   21   22 2   
    25   21   38 1   
    26   23   24 1   
    27   23   25 1   
    28   23   29 1   
    29   24   26 1   
    30   24   30 1   
    31   24   31 1   
    32   25   32 1   
    33   25   33 1   
    34   25   34 1   
    35   26   35 1   
    36   26   36 1   
    37   26   37 1   
    38   38   39 1   
    39   38   46 1   
    40   39   40 1   
    41   39   42 1   
    42   39   47 1   
    43   40   41 2   
    44   40   50 1   
    45   42   43 1   
    46   42   48 1   
    47   42   49 1   
    48   43   44 1   
    49   43   45 1   
    50   50   51 1   
    51   50   54 1   
    52   51   52 1   
    53   51   55 1   
    54   51   56 1   
    55   52   53 2   
    56   52   57 1   
    57   57   58 1   
    58   57   65 1   
    59   58   59 1   
    60   58   61 1   
    61   58   66 1   
    62   59   60 2   
    63   59   69 1   
    64   61   62 1   
    65   61   67 1   
    66   61   68 1   
    67   62   63 1   
    68   62   64 1   
    69   69   70 1   
    70   69   73 1   
    71   70   71 1   
    72   70   74 1   
    73   70   75 1   
    74   71   72 2   
    75   71   76 1   
    76   76   77 1   
    77   76   85 1   
    78   77   78 1   
    79   77   80 1   
    80   77   86 1   
    81   78   79 2   
    82   78   93 1   
    83   80   81 1   
    84   80   87 1   
    85   80   88 1   
    86   81   82 1   
    87   81   89 1   
    88   81   90 1   
    89   82   83 1   
    90   82   84 2   
    91   83   91 1   
    92   83   92 1   
    93   93   94 1   
    94   93  100 1   
    95   94   95 1   
    96   94   97 1   
    97   94  101 1   
    98   95   96 2   
    99   95  109 1   
   100   97   98 1   
   101   97   99 1   
   102   97  102 1   
   103   98  103 1   
   104   98  104 1   
   105   98  105 1   
   106   99  106 1   
   107   99  107 1   
   108   99  108 1   
   109  109  110 1   
   110  109  117 1   
   111  110  111 1   
   112  110  113 1   
   113  110  118 1   
   114  111  112 2   
   115  111  123 1   
   116  113  114 1   
   117  113  119 1   
   118  113  120 1   
   119  114  115 1   
   120  114  116 2   
   121  115  121 1   
   122  115  122 1   
   123  123  124 1   
   124  123  135 1   
   125  124  125 1   
   126  124  127 1   
   127  124  136 1   
   128  125  126 2   
   129  125  144 1   
   130  127  128 1   
   131  127  137 1   
   132  127  138 1   
   133  128  129 ar  
   134  128  130 ar  
   135  129  131 ar  
   136  129  139 1   
   137  130  132 ar  
   138  130  140 1   
   139  131  133 ar  
   140  131  141 1   
   141  132  133 ar  
   142  132  142 1   
   143  133  134 1   
   144  134  143 1   
   145  144  145 1   
   146  144  153 1   
   147  145  146 1   
   148  145  148 1   
   149  145  154 1   
   150  146  147 2   
   151  146  159 1   
   152  148  149 1   
   153  148  155 1   
   154  148  156 1   
   155  149  150 1   
   156  149  157 1   
   157  149  158 1   
   158  150  151 1   
   159  150  152 1   
   160  159  160 1   
   161  159  168 1   
   162  160  161 1   
   163  160  163 1   
   164  160  169 1   
   165  161  162 2   
   166  161  174 1   
   167  163  164 1   
   168  163  170 1   
   169  163  171 1   
   170  164  165 1   
   171  164  172 1   
   172  164  173 1   
   173  165  166 1   
   174  165  167 1   
   175  174  175 1   
   176  174  179 1   
   177  175  176 1   
   178  175  177 1   
   179  175  178 1   
   180  181  182 1   
   181  181  183 1   
   182  184  185 1   
   183  184  186 1   
   184  187  188 1   
   185  187  189 1   
@<TRIPOS>SUBSTRUCTURE
     1 MOL         1 TEMP              0 ****  ****    0 ROOT
