@<TRIPOS>MOLECULE
MOL
  189   185     1     0     0
SMALL
resp


@<TRIPOS>ATOM
      1 C1         -0.0060   -4.3420    5.6860 c3        1 MOL     -0.434391
      2 C2          0.6280   -3.7710    4.4620 c         1 MOL      0.812958
      3 O1          0.5120   -2.5620    4.2370 o         1 MOL     -0.614594
      4 H1         -0.7580   -3.6490    6.0620 hc        1 MOL      0.110718
      5 H2         -0.4800   -5.2930    5.4400 hc        1 MOL      0.110718
      6 H3          0.7560   -4.5020    6.4500 hc        1 MOL      0.110718
      7 N1          1.2280   -4.5780    3.5390 n         1 MOL     -0.675198
      8 C3          1.8620   -4.1050    2.3200 c3        1 MOL      0.480647
      9 C4          1.7300   -5.0080    1.1200 c         1 MOL      0.465568
     10 O2          1.8630   -6.2400    1.2910 o         1 MOL     -0.617892
     11 C5          3.3290   -3.8440    2.5620 c3        1 MOL     -0.430639
     12 C6          4.0860   -3.2180    1.4410 c         1 MOL      0.787968
     13 O3          5.3310   -3.3340    1.4140 o         1 MOL     -0.690507
     14 O4          3.4770   -2.5900    0.5740 o         1 MOL     -0.690507
     15 H4          1.0500   -5.5610    3.6840 hn        1 MOL      0.305561
     16 H5          1.3780   -3.1720    2.0300 h1        1 MOL     -0.258000
     17 H6          3.6540   -4.8640    2.7960 hc        1 MOL      0.083791
     18 H7          3.4220   -3.2310    3.4540 hc        1 MOL      0.083791
     19 N2          1.3350   -4.5320   -0.0580 n         1 MOL     -0.047921
     20 C7          0.9690   -5.3230   -1.2890 c3        1 MOL     -0.461651
     21 C8          1.8840   -4.9750   -2.4360 c         1 MOL      0.623671
     22 O5          1.7890   -5.5920   -3.5060 o         1 MOL     -0.584316
     23 C9         -0.5720   -5.0800   -1.6090 c3        1 MOL      0.296299
     24 C10        -0.9130   -3.6890   -2.1390 c3        1 MOL     -0.004151
     25 C11        -1.3970   -5.4470   -0.3570 c3        1 MOL     -0.304680
     26 C12        -2.3990   -3.6540   -2.5610 c3        1 MOL     -0.241777
     27 H8          1.3370   -3.5260   -0.0970 hn        1 MOL      0.342310
     28 H9          1.0630   -6.3790   -1.0050 h1        1 MOL      0.178946
     29 H10        -0.8400   -5.7780   -2.3950 hc        1 MOL     -0.020187
     30 H11        -0.2980   -3.4170   -2.9960 hc        1 MOL      0.049467
     31 H12        -0.8190   -2.9690   -1.3180 hc        1 MOL      0.049467
     32 H13        -1.1030   -6.4660   -0.0890 hc        1 MOL      0.055707
     33 H14        -1.2680   -4.6560    0.3910 hc        1 MOL      0.055707
     34 H15        -2.4460   -5.4510   -0.6350 hc        1 MOL      0.055707
     35 H16        -2.7090   -4.6310   -2.9390 hc        1 MOL      0.054319
     36 H17        -2.8640   -3.3800   -1.6210 hc        1 MOL      0.054319
     37 H18        -2.6330   -2.8830   -3.2900 hc        1 MOL      0.054319
     38 N3          2.7810   -3.9470   -2.3410 n         1 MOL     -0.403447
     39 C13         3.6850   -3.4410   -3.4750 c3        1 MOL      0.006001
     40 C14         5.1760   -3.1550   -3.0680 c         1 MOL      0.417102
     41 O6          6.0010   -3.0340   -4.0000 o         1 MOL     -0.558772
     42 C15         2.9980   -2.2470   -4.0210 c3        1 MOL     -0.182546
     43 C16         2.4250   -1.3090   -2.9500 c         1 MOL      0.757348
     44 O7          3.1140   -1.0550   -1.9670 o         1 MOL     -0.711302
     45 O8          1.3370   -0.7700   -3.1810 o         1 MOL     -0.711302
     46 H19         2.8130   -3.4850   -1.4380 hn        1 MOL      0.105018
     47 H20         3.7110   -4.2130   -4.2480 h1        1 MOL      0.107707
     48 H21         2.0890   -2.5240   -4.5550 hc        1 MOL      0.053772
     49 H22         3.5790   -1.7050   -4.7630 hc        1 MOL      0.053772
     50 N4          5.4800   -3.0840   -1.7800 n         1 MOL     -0.258193
     51 C17         6.7550   -2.6390   -1.3300 c3        1 MOL     -0.112091
     52 C18         7.1070   -1.1900   -1.6910 c         1 MOL      0.524381
     53 O9          8.2350   -0.8790   -1.3510 o         1 MOL     -0.613968
     54 H23         4.7290   -3.1750   -1.1120 hn        1 MOL      0.238767
     55 H24         7.5740   -3.2650   -1.6840 h1        1 MOL      0.090505
     56 H25         6.7090   -2.7400   -0.2440 h1        1 MOL      0.090505
     57 N5          6.1710   -0.3080   -2.0230 n         1 MOL     -0.379064
     58 C19         6.2870    1.0810   -2.5370 c3        1 MOL      0.088905
     59 C20         6.7810    2.0940   -1.4960 c         1 MOL      0.364342
     60 O10         7.2750    3.1850   -1.7990 o         1 MOL     -0.566523
     61 C21         4.9870    1.5650   -3.1110 c3        1 MOL     -0.466428
     62 C22         3.9190    1.9290   -2.1420 c         1 MOL      0.832089
     63 O11         3.9370    1.4480   -0.9860 o         1 MOL     -0.692297
     64 O12         2.9420    2.5340   -2.5830 o         1 MOL     -0.692297
     65 H26         5.2430   -0.6970   -2.1110 hn        1 MOL      0.326211
     66 H27         6.9960    1.1790   -3.3630 h1        1 MOL      0.076033
     67 H28         4.7450    0.8060   -3.8580 hc        1 MOL      0.131007
     68 H29         5.2930    2.4770   -3.6210 hc        1 MOL      0.131007
     69 N6          6.6830    1.6940   -0.2100 n         1 MOL     -0.011383
     70 C23         7.3280    2.4070    0.9460 c3        1 MOL     -0.194686
     71 C24         6.3070    3.3300    1.7370 c         1 MOL      0.570754
     72 O13         6.7760    4.1160    2.5940 o         1 MOL     -0.619781
     73 H30         6.1070    0.8660   -0.1470 hn        1 MOL      0.196827
     74 H31         8.1640    3.0160    0.6220 h1        1 MOL      0.087329
     75 H32         7.7030    1.6570    1.6470 h1        1 MOL      0.087329
     76 N7          5.0700    3.2860    1.4240 n         1 MOL     -0.245386
     77 C25         3.9790    4.1190    1.9300 c3        1 MOL      0.062992
     78 C26         2.6550    3.3390    1.9550 c         1 MOL      0.463147
     79 O14         2.7560    2.1220    1.6260 o         1 MOL     -0.535275
     80 C27         3.9160    5.3780    1.0440 c3        1 MOL     -0.461366
     81 C28         4.1100    5.1570   -0.5130 c3        1 MOL      0.118482
     82 C29         3.9070    6.4000   -1.3420 c         1 MOL      0.590978
     83 N8          4.7070    7.3510   -1.0400 n         1 MOL     -0.791161
     84 O15         3.1490    6.4450   -2.2910 o         1 MOL     -0.560195
     85 H33         4.8120    2.6050    0.7230 hn        1 MOL      0.076680
     86 H34         4.1600    4.4340    2.9530 h1        1 MOL      0.053438
     87 H35         4.7330    6.0380    1.3530 hc        1 MOL      0.127416
     88 H36         2.9460    5.8560    1.1460 hc        1 MOL      0.127416
     89 H37         3.4250    4.3940   -0.8820 hc        1 MOL      0.040142
     90 H38         5.0870    4.7330   -0.7350 hc        1 MOL      0.040142
     91 H39         5.3850    7.3220   -0.3000 hn        1 MOL      0.345615
     92 H40         4.6280    8.1510   -1.6630 hn        1 MOL      0.345615
     93 N9          1.4440    3.8510    2.2540 n         1 MOL     -0.204510
     94 C30         0.2180    3.0990    2.5320 c3        1 MOL     -0.027623
     95 C31        -0.8310    3.4930    1.4980 c         1 MOL      0.322397
     96 O16        -1.1270    4.7170    1.3910 o         1 MOL     -0.564380
     97 C32        -0.3210    3.3470    3.9850 c3        1 MOL      0.429574
     98 C33        -1.5750    2.5660    4.3050 c3        1 MOL     -0.353924
     99 C34         0.8040    3.0570    5.0070 c3        1 MOL     -0.353924
    100 H41         1.4520    4.8090    2.5630 hn        1 MOL      0.209311
    101 H42         0.3890    2.0440    2.3410 h1        1 MOL      0.059202
    102 H43        -0.5600    4.3940    4.1490 hc        1 MOL     -0.064067
    103 H44        -1.4500    1.5640    3.9050 hc        1 MOL      0.065804
    104 H45        -1.7320    2.4270    5.3730 hc        1 MOL      0.065804
    105 H46        -2.4150    3.0780    3.8470 hc        1 MOL      0.065804
    106 H47         1.7020    3.5830    4.6830 hc        1 MOL      0.065804
    107 H48         0.4890    3.5110    5.9490 hc        1 MOL      0.065804
    108 H49         0.9550    1.9810    5.1030 hc        1 MOL      0.065804
    109 N10        -1.4670    2.4710    0.8340 n         1 MOL     -0.126957
    110 C35        -2.5710    2.5660   -0.1080 c3        1 MOL      0.291441
    111 C36        -3.9190    2.3860    0.5510 c         1 MOL      0.071806
    112 O17        -3.9260    1.7510    1.5970 o         1 MOL     -0.271160
    113 C37        -2.2420    1.6760   -1.2980 c3        1 MOL     -0.195308
    114 C38        -3.4320    1.4490   -2.2250 c         1 MOL      0.618688
    115 N11        -3.6870    2.4350   -3.0460 n         1 MOL     -0.706060
    116 O18        -4.1080    0.3740   -2.2250 o         1 MOL     -0.534134
    117 H50        -1.0040    1.5820    0.9630 hn        1 MOL      0.148749
    118 H51        -2.5120    3.5600   -0.5490 h1        1 MOL     -0.011791
    119 H52        -2.1130    0.6310   -1.0300 hc        1 MOL      0.078119
    120 H53        -1.3730    2.0700   -1.8230 hc        1 MOL      0.078119
    121 H54        -3.1050    3.2610   -2.9780 hn        1 MOL      0.327177
    122 H55        -4.4670    2.4320   -3.6830 hn        1 MOL      0.327177
    123 N12        -5.0770    2.8130   -0.0050 n         1 MOL     -0.138573
    124 C39        -6.4300    2.6010    0.5950 c3        1 MOL      0.069382
    125 C40        -6.7490    1.0660    0.7960 c         1 MOL      0.495121
    126 O19        -7.4150    0.8490    1.8040 o         1 MOL     -0.591722
    127 C41        -7.4300    3.3500   -0.2850 c3        1 MOL     -0.253076
    128 C42        -7.3610    3.0920   -1.8640 ca        1 MOL      0.071803
    129 C43        -6.6470    3.8650   -2.7530 ca        1 MOL     -0.207135
    130 C44        -8.0110    1.9220   -2.3400 ca        1 MOL     -0.207135
    131 C45        -6.4510    3.4700   -4.0820 ca        1 MOL     -0.181418
    132 C46        -7.9590    1.5150   -3.6890 ca        1 MOL     -0.181418
    133 C47        -7.1030    2.2560   -4.5440 ca        1 MOL      0.336255
    134 O20        -7.0630    1.9450   -5.8770 oh        1 MOL     -0.592072
    135 H56        -5.0500    3.3380   -0.8620 hn        1 MOL      0.107634
    136 H57        -6.4820    3.0140    1.6060 h1        1 MOL      0.055904
    137 H58        -7.3420    4.4360   -0.2080 hc        1 MOL      0.088801
    138 H59        -8.3770    2.9550    0.0740 hc        1 MOL      0.088801
    139 H60        -6.0500    4.6980   -2.4030 ha        1 MOL      0.135085
    140 H61        -8.5000    1.3170   -1.5910 ha        1 MOL      0.135085
    141 H62        -5.9290    4.0590   -4.8220 ha        1 MOL      0.108948
    142 H63        -8.4450    0.6250   -4.0410 ha        1 MOL      0.108948
    143 H64        -7.4640    1.0920   -6.0450 ho        1 MOL      0.436278
    144 N13        -6.1860    0.0970    0.0260 n         1 MOL      0.058468
    145 C48        -6.3470   -1.3090    0.1620 c3        1 MOL     -0.261576
    146 C49        -5.6350   -1.8040    1.4140 c         1 MOL      0.476227
    147 O21        -6.0900   -2.8140    1.9070 o         1 MOL     -0.522292
    148 C50        -5.8020   -2.0910   -1.1310 c3        1 MOL     -0.004912
    149 C51        -6.7020   -1.9400   -2.4090 c3        1 MOL     -0.222946
    150 C52        -8.2100   -2.1490   -2.1120 c         1 MOL      0.639500
    151 O22        -9.0920   -1.3420   -2.5290 o         1 MOL     -0.682256
    152 O23        -8.6370   -3.1060   -1.4250 o         1 MOL     -0.682256
    153 H65        -5.6140    0.4010   -0.7530 hn        1 MOL      0.161971
    154 H66        -7.4280   -1.4300    0.2270 h1        1 MOL      0.153675
    155 H67        -5.8630   -3.1320   -0.8010 hc        1 MOL      0.054497
    156 H68        -4.7560   -1.7960   -1.2250 hc        1 MOL      0.054497
    157 H69        -6.4580   -2.7260   -3.1190 hc        1 MOL      0.033933
    158 H70        -6.5580   -0.9420   -2.8360 hc        1 MOL      0.033933
    159 N14        -4.5200   -1.2130    1.8190 n         1 MOL     -0.309107
    160 C53        -3.7130   -1.5820    2.9910 c3        1 MOL      0.010213
    161 C54        -4.1510   -0.9240    4.2570 c         1 MOL      0.406831
    162 O24        -4.0200   -1.6240    5.3320 o         1 MOL     -0.564511
    163 C55        -2.2770   -1.2440    2.7300 c3        1 MOL     -0.054701
    164 C56        -1.6350   -1.9330    1.3890 c3        1 MOL     -0.089793
    165 C57        -0.3050   -1.2630    1.0570 c         1 MOL      0.843195
    166 O25         0.4810   -1.9030    0.3750 o         1 MOL     -0.776241
    167 O26        -0.0040   -0.0150    1.2580 o         1 MOL     -0.776241
    168 H71        -4.3100   -0.3610    1.3080 hn        1 MOL      0.096589
    169 H72        -3.7460   -2.6690    3.0810 h1        1 MOL      0.068314
    170 H73        -1.8160   -1.4400    3.7010 hc        1 MOL      0.062590
    171 H74        -2.2850   -0.1790    2.4900 hc        1 MOL      0.062590
    172 H75        -2.3100   -1.8820    0.5250 hc        1 MOL      0.055058
    173 H76        -1.4630   -2.9280    1.7830 hc        1 MOL      0.055058
    174 N15        -4.6450    0.3250    4.1620 n         1 MOL     -0.008912
    175 C58        -4.9430    1.1020    5.3400 c3        1 MOL     -0.283199
    176 H77        -5.2040    2.1200    5.0480 h1        1 MOL      0.095626
    177 H78        -5.7800    0.6510    5.8720 h1        1 MOL      0.095626
    178 H79        -4.0690    1.1260    5.9910 h1        1 MOL      0.095626
    179 H80        -4.7000    0.7240    3.2380 hn        1 MOL      0.092000
    180 Ca1         2.5050   -0.1620    0.3970 Ca        1 MOL      1.721149
    181 O27         2.3720   -0.7000    3.0820 oh        1 MOL     -0.878709
    182 H81         2.7180   -0.3420    3.8970 ho        1 MOL      0.418682
    183 H82         1.6860   -1.3100    3.3580 ho        1 MOL      0.418682
    184 O28         5.2320   -0.4040    1.1880 oh        1 MOL     -0.878709
    185 H83         5.5450   -0.0780    2.0330 ho        1 MOL      0.418682
    186 H84         5.1200   -1.3550    1.3230 ho        1 MOL      0.418682
    187 O29         1.0270    1.1580   -1.4060 oh        1 MOL     -0.878709
    188 H85         1.5980    1.8030   -1.8290 ho        1 MOL      0.418682
    189 H86         0.8990    0.4920   -2.0890 ho        1 MOL      0.418682
@<TRIPOS>BOND
     1    1    2 1   
     2    1    4 1   
     3    1    5 1   
     4    1    6 1   
     5    2    3 2   
     6    2    7 1   
     7    7    8 1   
     8    7   15 1   
     9    8    9 1   
    10    8   11 1   
    11    8   16 1   
    12    9   10 2   
    13    9   19 1   
    14   11   12 1   
    15   11   17 1   
    16   11   18 1   
    17   12   13 1   
    18   12   14 1   
    19   19   20 1   
    20   19   27 1   
    21   20   21 1   
    22   20   23 1   
    23   20   28 1   
    24   21   22 2   
    25   21   38 1   
    26   23   24 1   
    27   23   25 1   
    28   23   29 1   
    29   24   26 1   
    30   24   30 1   
    31   24   31 1   
    32   25   32 1   
    33   25   33 1   
    34   25   34 1   
    35   26   35 1   
    36   26   36 1   
    37   26   37 1   
    38   38   39 1   
    39   38   46 1   
    40   39   40 1   
    41   39   42 1   
    42   39   47 1   
    43   40   41 2   
    44   40   50 1   
    45   42   43 1   
    46   42   48 1   
    47   42   49 1   
    48   43   44 1   
    49   43   45 1   
    50   50   51 1   
    51   50   54 1   
    52   51   52 1   
    53   51   55 1   
    54   51   56 1   
    55   52   53 2   
    56   52   57 1   
    57   57   58 1   
    58   57   65 1   
    59   58   59 1   
    60   58   61 1   
    61   58   66 1   
    62   59   60 2   
    63   59   69 1   
    64   61   62 1   
    65   61   67 1   
    66   61   68 1   
    67   62   63 1   
    68   62   64 1   
    69   69   70 1   
    70   69   73 1   
    71   70   71 1   
    72   70   74 1   
    73   70   75 1   
    74   71   72 2   
    75   71   76 1   
    76   76   77 1   
    77   76   85 1   
    78   77   78 1   
    79   77   80 1   
    80   77   86 1   
    81   78   79 2   
    82   78   93 1   
    83   80   81 1   
    84   80   87 1   
    85   80   88 1   
    86   81   82 1   
    87   81   89 1   
    88   81   90 1   
    89   82   83 1   
    90   82   84 2   
    91   83   91 1   
    92   83   92 1   
    93   93   94 1   
    94   93  100 1   
    95   94   95 1   
    96   94   97 1   
    97   94  101 1   
    98   95   96 2   
    99   95  109 1   
   100   97   98 1   
   101   97   99 1   
   102   97  102 1   
   103   98  103 1   
   104   98  104 1   
   105   98  105 1   
   106   99  106 1   
   107   99  107 1   
   108   99  108 1   
   109  109  110 1   
   110  109  117 1   
   111  110  111 1   
   112  110  113 1   
   113  110  118 1   
   114  111  112 2   
   115  111  123 1   
   116  113  114 1   
   117  113  119 1   
   118  113  120 1   
   119  114  115 1   
   120  114  116 2   
   121  115  121 1   
   122  115  122 1   
   123  123  124 1   
   124  123  135 1   
   125  124  125 1   
   126  124  127 1   
   127  124  136 1   
   128  125  126 2   
   129  125  144 1   
   130  127  128 1   
   131  127  137 1   
   132  127  138 1   
   133  128  129 ar  
   134  128  130 ar  
   135  129  131 ar  
   136  129  139 1   
   137  130  132 ar  
   138  130  140 1   
   139  131  133 ar  
   140  131  141 1   
   141  132  133 ar  
   142  132  142 1   
   143  133  134 1   
   144  134  143 1   
   145  144  145 1   
   146  144  153 1   
   147  145  146 1   
   148  145  148 1   
   149  145  154 1   
   150  146  147 2   
   151  146  159 1   
   152  148  149 1   
   153  148  155 1   
   154  148  156 1   
   155  149  150 1   
   156  149  157 1   
   157  149  158 1   
   158  150  151 1   
   159  150  152 1   
   160  159  160 1   
   161  159  168 1   
   162  160  161 1   
   163  160  163 1   
   164  160  169 1   
   165  161  162 2   
   166  161  174 1   
   167  163  164 1   
   168  163  170 1   
   169  163  171 1   
   170  164  165 1   
   171  164  172 1   
   172  164  173 1   
   173  165  166 1   
   174  165  167 1   
   175  174  175 1   
   176  174  179 1   
   177  175  176 1   
   178  175  177 1   
   179  175  178 1   
   180  181  182 1   
   181  181  183 1   
   182  184  185 1   
   183  184  186 1   
   184  187  188 1   
   185  187  189 1   
@<TRIPOS>SUBSTRUCTURE
     1 MOL         1 TEMP              0 ****  ****    0 ROOT
