@<TRIPOS>MOLECULE
MOL
  176   174     1     0     0
SMALL
resp


@<TRIPOS>ATOM
      1 C1          0.4490   -4.6330    5.7780 c3        1 MOL     -0.327694
      2 C2          0.4710   -4.0510    4.3460 c         1 MOL      0.671298
      3 O1         -0.3510   -4.5020    3.5260 o         1 MOL     -0.561383
      4 H1          1.2320   -4.1620    6.3730 hc        1 MOL      0.085439
      5 H2         -0.5210   -4.4390    6.2350 hc        1 MOL      0.085439
      6 H3          0.6230   -5.7090    5.7370 hc        1 MOL      0.085439
      7 N1          1.4370   -3.2170    4.0390 n         1 MOL     -0.566561
      8 C3          1.7150   -2.8060    2.7190 c3        1 MOL      0.070119
      9 C4          2.1040   -3.8640    1.6790 c         1 MOL      0.673101
     10 O2          2.9940   -4.7070    1.9820 o         1 MOL     -0.565420
     11 C5          2.8880   -1.7700    2.7250 c3        1 MOL     -0.161446
     12 C6          3.0110   -0.9920    1.4190 c         1 MOL      0.819589
     13 O3          2.7730    0.2140    1.3680 o         1 MOL     -0.775567
     14 O4          3.0580   -1.5090    0.3080 o         1 MOL     -0.775567
     15 H4          2.0780   -2.8970    4.7590 hn        1 MOL      0.337285
     16 H5          0.8620   -2.2440    2.3450 h1        1 MOL      0.081130
     17 H6          3.7940   -2.3250    2.9480 hc        1 MOL      0.016701
     18 H7          2.6290   -1.0590    3.5080 hc        1 MOL      0.016701
     19 N2          1.4490   -3.8930    0.5340 n         1 MOL     -0.379367
     20 C7          1.5460   -5.0330   -0.3090 c3        1 MOL     -0.040842
     21 C8          2.8020   -5.1770   -1.1950 c         1 MOL      0.527437
     22 O5          2.9430   -6.2010   -1.8400 o         1 MOL     -0.585403
     23 C9          0.1850   -5.2350   -1.0630 c3        1 MOL     -0.098542
     24 C10         0.1500   -4.4000   -2.3160 c3        1 MOL     -0.163888
     25 C11        -1.1000   -4.6040   -3.1400 c3        1 MOL     -0.051499
     26 C12        -1.1720   -3.5370   -4.2460 c3        1 MOL      0.111416
     27 N3         -2.2800   -3.7810   -5.1590 n4        1 MOL     -0.404406
     28 H8          0.8620   -3.1070    0.2980 hn        1 MOL      0.207728
     29 H9          1.4600   -5.8890    0.3570 h1        1 MOL      0.112891
     30 H10        -0.7020   -4.9720   -0.4840 hc        1 MOL      0.088177
     31 H11         0.0880   -6.2990   -1.2630 hc        1 MOL      0.088177
     32 H12         0.9480   -4.6660   -3.0080 hc        1 MOL      0.115469
     33 H13         0.2020   -3.3400   -2.0580 hc        1 MOL      0.115469
     34 H14        -2.0170   -4.5590   -2.5540 hc        1 MOL      0.035140
     35 H15        -1.1950   -5.5930   -3.6020 hc        1 MOL      0.035140
     36 H16        -0.2340   -3.8210   -4.7410 hx        1 MOL      0.058458
     37 H17        -1.1050   -2.4870   -3.9510 hx        1 MOL      0.058458
     38 H18        -2.3170   -4.6900   -5.6060 hn        1 MOL      0.334098
     39 H19        -3.1640   -3.6300   -4.7100 hn        1 MOL      0.334098
     40 H20        -2.1460   -3.0940   -5.8890 hn        1 MOL      0.334098
     41 N4          3.6210   -4.1890   -1.1280 n         1 MOL     -0.100802
     42 C13         4.8020   -3.8960   -1.9920 c3        1 MOL      0.099704
     43 C14         5.9110   -3.1180   -1.2400 c         1 MOL      0.380484
     44 O6          7.0400   -3.1370   -1.7990 o         1 MOL     -0.523315
     45 C15         4.4160   -2.9660   -3.1770 c3        1 MOL     -0.216428
     46 C16         3.5760   -1.7510   -2.6920 c         1 MOL      0.810609
     47 O7          2.3000   -1.8470   -2.7110 o         1 MOL     -0.799695
     48 O8          4.1310   -0.6690   -2.3060 o         1 MOL     -0.799695
     49 H21         3.4040   -3.5260   -0.4010 hn        1 MOL     -0.211299
     50 H22         5.2220   -4.7940   -2.4320 h1        1 MOL      0.095065
     51 H23         3.8830   -3.6090   -3.8780 hc        1 MOL      0.057345
     52 H24         5.3050   -2.5600   -3.6710 hc        1 MOL      0.057345
     53 N5          5.6160   -2.6100   -0.0120 n         1 MOL     -0.229258
     54 C17         6.6620   -2.0180    0.8670 c3        1 MOL     -0.262337
     55 C18         6.9860   -0.5020    0.7830 c         1 MOL      0.515978
     56 O9          7.7930   -0.0210    1.6080 o         1 MOL     -0.518103
     57 H25         4.6390   -2.4240    0.1710 hn        1 MOL      0.374755
     58 H26         7.5820   -2.5880    0.7340 h1        1 MOL      0.133702
     59 H27         6.3830   -2.1040    1.9130 h1        1 MOL      0.133702
     60 N6          6.4230    0.1460   -0.3040 n         1 MOL     -0.444679
     61 C19         6.7300    1.5240   -0.5360 c3        1 MOL      0.218760
     62 C20         6.3750    2.4710    0.6660 c         1 MOL      0.377003
     63 O10         7.0340    3.4930    0.7960 o         1 MOL     -0.543388
     64 C21         5.9920    1.9720   -1.8200 c3        1 MOL     -0.550572
     65 C22         4.5560    2.4210   -1.7530 c         1 MOL      0.969302
     66 N7          4.2560    3.5110   -2.4180 n         1 MOL     -0.881936
     67 O11         3.7210    1.9390   -1.0770 o         1 MOL     -0.652466
     68 H28         5.9610   -0.3910   -1.0180 hn        1 MOL      0.347621
     69 H29         7.8090    1.6070   -0.6790 h1        1 MOL      0.081396
     70 H30         5.9620    1.1360   -2.5210 hc        1 MOL      0.142393
     71 H31         6.6670    2.7590   -2.1520 hc        1 MOL      0.142393
     72 H32         4.9700    3.9630   -2.9750 hn        1 MOL      0.358821
     73 H33         3.4030    4.0350   -2.3070 hn        1 MOL      0.358821
     74 N8          5.4990    2.1150    1.5810 n         1 MOL     -0.149378
     75 C23         5.1900    3.0670    2.7620 c3        1 MOL     -0.180460
     76 C24         3.9070    3.8150    2.7900 c         1 MOL      0.588700
     77 O12         3.7230    4.5890    3.7340 o         1 MOL     -0.565762
     78 H34         4.9260    1.2990    1.4500 hn        1 MOL      0.182525
     79 H35         6.0230    3.7080    3.0630 h1        1 MOL      0.118459
     80 H36         5.0630    2.4170    3.6350 h1        1 MOL      0.118459
     81 N9          3.0570    3.6730    1.7610 n         1 MOL     -0.397831
     82 C25         1.6640    4.1700    1.8840 c3        1 MOL      0.076183
     83 C26         0.6350    3.1370    1.2900 c         1 MOL      0.561458
     84 O13         0.8690    2.4430    0.3150 o         1 MOL     -0.552131
     85 C27         1.5490    5.5150    1.1950 c3        1 MOL     -0.216400
     86 C28         1.3620    5.5660   -0.3010 ca        1 MOL      0.049745
     87 C29         0.1080    5.3340   -0.9770 ca        1 MOL     -0.098523
     88 C30         2.4070    5.9360   -1.1460 ca        1 MOL     -0.098523
     89 C31        -0.0340    5.3660   -2.3970 ca        1 MOL     -0.315872
     90 C32         2.2800    6.0100   -2.5680 ca        1 MOL     -0.315872
     91 C33         1.1110    5.6590   -3.2590 ca        1 MOL      0.374519
     92 O14         1.0360    5.5960   -4.5870 oh        1 MOL     -0.481712
     93 H37         3.2410    3.0640    0.9830 hn        1 MOL      0.248833
     94 H38         1.5340    4.3490    2.9480 h1        1 MOL      0.088074
     95 H39         2.4200    6.1210    1.4720 hc        1 MOL      0.102050
     96 H40         0.7550    6.1340    1.6280 hc        1 MOL      0.102050
     97 H41        -0.6900    5.0110   -0.3150 ha        1 MOL      0.133482
     98 H42         3.3900    6.1640   -0.7530 ha        1 MOL      0.133482
     99 H43        -0.9390    5.0320   -2.8990 ha        1 MOL      0.151161
    100 H44         3.1170    6.3160   -3.1610 ha        1 MOL      0.151161
    101 H45         0.2220    5.1570   -4.8280 ho        1 MOL      0.363985
    102 N10        -0.5490    3.1470    1.9260 n         1 MOL     -0.519595
    103 C34        -1.7000    2.3170    1.5090 c3        1 MOL     -0.133222
    104 C35        -2.8850    3.1260    1.2510 c         1 MOL      0.732177
    105 O15        -3.0610    4.2400    1.7790 o         1 MOL     -0.594832
    106 C36        -2.0370    1.2960    2.5860 c3        1 MOL      0.189772
    107 C37        -2.5180    1.9280    3.9690 c3        1 MOL     -0.130560
    108 C38        -0.7380    0.3990    2.8270 c3        1 MOL     -0.219032
    109 C39        -2.8670    0.7950    5.0010 c3        1 MOL     -0.109048
    110 H46        -0.6510    3.7600    2.7340 hn        1 MOL      0.293060
    111 H47        -1.4450    1.8170    0.5790 h1        1 MOL      0.123402
    112 H48        -2.8610    0.6780    2.2330 hc        1 MOL     -0.087426
    113 H49        -3.3880    2.5520    3.7620 hc        1 MOL      0.068131
    114 H50        -1.7860    2.5450    4.4910 hc        1 MOL      0.068131
    115 H51        -1.0280   -0.5300    3.3220 hc        1 MOL      0.081504
    116 H52        -0.2840   -0.0130    1.9230 hc        1 MOL      0.081504
    117 H53         0.0610    0.9500    3.3220 hc        1 MOL      0.081504
    118 H54        -3.5110   -0.0080    4.6480 hc        1 MOL      0.030520
    119 H55        -1.9170    0.4260    5.3880 hc        1 MOL      0.030520
    120 H56        -3.3160    1.3130    5.8520 hc        1 MOL      0.030520
    121 N11        -3.6790    2.5960    0.3780 n         1 MOL     -0.598339
    122 C40        -5.0220    3.0900    0.0970 c3        1 MOL      0.244035
    123 C41        -6.1080    2.0150    0.2940 c         1 MOL      0.358899
    124 O16        -5.8230    0.8880    0.7340 o         1 MOL     -0.393022
    125 C42        -4.9280    3.6540   -1.3420 c3        1 MOL      0.217593
    126 O17        -5.9640    4.5520   -1.6640 oh        1 MOL     -0.598235
    127 H57        -3.3930    1.7390   -0.0670 hn        1 MOL      0.238552
    128 H58        -5.2250    3.9200    0.7780 h1        1 MOL      0.045147
    129 H59        -5.0820    2.8550   -2.0700 h1        1 MOL      0.002817
    130 H60        -3.9600    4.1240   -1.5120 h1        1 MOL      0.002817
    131 H61        -5.8050    5.3410   -1.1450 ho        1 MOL      0.392313
    132 N12        -7.3890    2.4150    0.1470 n         1 MOL     -0.390159
    133 C43        -8.6030    1.5960    0.2610 c3        1 MOL      0.222444
    134 C44        -8.5030    0.1420   -0.2690 c         1 MOL      0.378137
    135 O18        -8.9460   -0.8020    0.4110 o         1 MOL     -0.489688
    136 C45        -9.7490    2.3700   -0.5160 c3        1 MOL     -0.398043
    137 H62        -7.5080    3.3850   -0.1120 hn        1 MOL      0.213768
    138 H63        -8.9170    1.5520    1.3050 h1        1 MOL      0.058438
    139 H64       -10.7150    2.0070   -0.1580 hc        1 MOL      0.124013
    140 H65        -9.8370    3.3610   -0.0700 hc        1 MOL      0.124013
    141 H66        -9.6030    2.3910   -1.5940 hc        1 MOL      0.124013
    142 N13        -7.9810   -0.0050   -1.4500 n         1 MOL     -0.333200
    143 C46        -7.7770   -1.4060   -2.0300 c3        1 MOL      0.044361
    144 C47        -6.5700   -2.2500   -1.3410 c         1 MOL      0.371957
    145 O19        -6.6870   -3.4920   -1.2790 o         1 MOL     -0.486402
    146 C48        -7.2170   -1.2510   -3.4700 c3        1 MOL     -0.266269
    147 H67        -7.6010    0.7520   -2.0020 hn        1 MOL      0.296995
    148 H68        -8.6550   -2.0620   -2.0620 h1        1 MOL      0.137538
    149 H69        -7.9340   -0.8220   -4.1790 hc        1 MOL      0.070560
    150 H70        -6.4410   -0.4960   -3.5040 hc        1 MOL      0.070560
    151 H71        -6.7830   -2.1500   -3.9080 hc        1 MOL      0.070560
    152 N14        -5.5720   -1.5830   -0.7250 n         1 MOL     -0.237773
    153 C49        -4.5610   -2.3070    0.1010 c3        1 MOL     -0.048689
    154 C50        -5.0830   -2.7910    1.4580 c         1 MOL      0.444822
    155 O20        -4.7390   -3.9150    1.9300 o         1 MOL     -0.507730
    156 C51        -3.3160   -1.5480    0.2280 c3        1 MOL     -0.333270
    157 C52        -2.3170   -1.7850   -0.9090 c3        1 MOL      0.440211
    158 C53        -0.9970   -1.0510   -0.8050 c         1 MOL      0.581031
    159 O21        -0.7990   -0.0300   -1.5520 o         1 MOL     -0.771271
    160 O22        -0.0730   -1.5190   -0.1450 o         1 MOL     -0.771271
    161 H72        -5.6390   -0.5750   -0.7590 hn        1 MOL      0.168760
    162 H73        -4.2840   -3.2340   -0.3930 h1        1 MOL      0.093043
    163 H74        -2.7270   -1.8890    1.0780 hc        1 MOL      0.132464
    164 H75        -3.4930   -0.4780    0.3540 hc        1 MOL      0.132464
    165 H76        -2.8020   -1.5940   -1.8600 hc        1 MOL     -0.114341
    166 H77        -2.1330   -2.8590   -0.9390 hc        1 MOL     -0.114341
    167 N15        -5.9800   -1.9600    1.9920 n         1 MOL     -0.071253
    168 C54        -6.6270   -2.2220    3.2420 c3        1 MOL     -0.182171
    169 H78        -5.9860   -1.8920    4.0590 h1        1 MOL      0.081917
    170 H79        -7.5730   -1.6830    3.2830 h1        1 MOL      0.081917
    171 H80        -6.8150   -3.2920    3.3380 h1        1 MOL      0.081917
    172 H81        -6.2190   -1.0750    1.5740 hn        1 MOL      0.144700
    173 Ca1         1.7710    0.2670   -1.0710 Ca        1 MOL      1.813503
    174 O23         1.4390    2.0100   -2.9970 oh        1 MOL     -0.886680
    175 H82         2.0160    2.1280   -3.7490 ho        1 MOL      0.417424
    176 H83         0.7100    2.6100   -3.1490 ho        1 MOL      0.417424
@<TRIPOS>BOND
     1    1    2 1   
     2    1    4 1   
     3    1    5 1   
     4    1    6 1   
     5    2    3 2   
     6    2    7 1   
     7    7    8 1   
     8    7   15 1   
     9    8    9 1   
    10    8   11 1   
    11    8   16 1   
    12    9   10 2   
    13    9   19 1   
    14   11   12 1   
    15   11   17 1   
    16   11   18 1   
    17   12   13 1   
    18   12   14 1   
    19   19   20 1   
    20   19   28 1   
    21   20   21 1   
    22   20   23 1   
    23   20   29 1   
    24   21   22 2   
    25   21   41 1   
    26   23   24 1   
    27   23   30 1   
    28   23   31 1   
    29   24   25 1   
    30   24   32 1   
    31   24   33 1   
    32   25   26 1   
    33   25   34 1   
    34   25   35 1   
    35   26   27 1   
    36   26   36 1   
    37   26   37 1   
    38   27   38 1   
    39   27   39 1   
    40   27   40 1   
    41   41   42 1   
    42   41   49 1   
    43   42   43 1   
    44   42   45 1   
    45   42   50 1   
    46   43   44 2   
    47   43   53 1   
    48   45   46 1   
    49   45   51 1   
    50   45   52 1   
    51   46   47 1   
    52   46   48 1   
    53   53   54 1   
    54   53   57 1   
    55   54   55 1   
    56   54   58 1   
    57   54   59 1   
    58   55   56 2   
    59   55   60 1   
    60   60   61 1   
    61   60   68 1   
    62   61   62 1   
    63   61   64 1   
    64   61   69 1   
    65   62   63 2   
    66   62   74 1   
    67   64   65 1   
    68   64   70 1   
    69   64   71 1   
    70   65   66 1   
    71   65   67 2   
    72   66   72 1   
    73   66   73 1   
    74   74   75 1   
    75   74   78 1   
    76   75   76 1   
    77   75   79 1   
    78   75   80 1   
    79   76   77 2   
    80   76   81 1   
    81   81   82 1   
    82   81   93 1   
    83   82   83 1   
    84   82   85 1   
    85   82   94 1   
    86   83   84 2   
    87   83  102 1   
    88   85   86 1   
    89   85   95 1   
    90   85   96 1   
    91   86   87 ar  
    92   86   88 ar  
    93   87   89 ar  
    94   87   97 1   
    95   88   90 ar  
    96   88   98 1   
    97   89   91 ar  
    98   89   99 1   
    99   90   91 ar  
   100   90  100 1   
   101   91   92 1   
   102   92  101 1   
   103  102  103 1   
   104  102  110 1   
   105  103  104 1   
   106  103  106 1   
   107  103  111 1   
   108  104  105 2   
   109  104  121 1   
   110  106  107 1   
   111  106  108 1   
   112  106  112 1   
   113  107  109 1   
   114  107  113 1   
   115  107  114 1   
   116  108  115 1   
   117  108  116 1   
   118  108  117 1   
   119  109  118 1   
   120  109  119 1   
   121  109  120 1   
   122  121  122 1   
   123  121  127 1   
   124  122  123 1   
   125  122  125 1   
   126  122  128 1   
   127  123  124 2   
   128  123  132 1   
   129  125  126 1   
   130  125  129 1   
   131  125  130 1   
   132  126  131 1   
   133  132  133 1   
   134  132  137 1   
   135  133  134 1   
   136  133  136 1   
   137  133  138 1   
   138  134  135 2   
   139  134  142 1   
   140  136  139 1   
   141  136  140 1   
   142  136  141 1   
   143  142  143 1   
   144  142  147 1   
   145  143  144 1   
   146  143  146 1   
   147  143  148 1   
   148  144  145 2   
   149  144  152 1   
   150  146  149 1   
   151  146  150 1   
   152  146  151 1   
   153  152  153 1   
   154  152  161 1   
   155  153  154 1   
   156  153  156 1   
   157  153  162 1   
   158  154  155 2   
   159  154  167 1   
   160  156  157 1   
   161  156  163 1   
   162  156  164 1   
   163  157  158 1   
   164  157  165 1   
   165  157  166 1   
   166  158  159 1   
   167  158  160 1   
   168  167  168 1   
   169  167  172 1   
   170  168  169 1   
   171  168  170 1   
   172  168  171 1   
   173  174  175 1   
   174  174  176 1   
@<TRIPOS>SUBSTRUCTURE
     1 MOL         1 TEMP              0 ****  ****    0 ROOT
